<?xml version="1.0" encoding="UTF-8"?>
<!-- generated on 2021-11-01 17:07:55 by Eclipse SUMO duarouter Version 1.10.0
<configuration xmlns:xsi="http://www.w3.org/2001/XMLSchema-instance" xsi:noNamespaceSchemaLocation="http://sumo.dlr.de/xsd/duarouterConfiguration.xsd">

    <input>
        <net-file value="osm.net.xml"/>
        <route-files value="osm.passenger.trips.xml"/>
    </input>

    <output>
        <output-file value="osm.passenger.trips.xml.tmp"/>
        <write-trips value="true"/>
    </output>

    <time>
        <begin value="0"/>
        <end value="3600"/>
    </time>

    <report>
        <no-warnings value="true"/>
        <ignore-errors value="true"/>
        <no-step-log value="true"/>
    </report>

</configuration>
-->
<routes xmlns:xsi="http://www.w3.org/2001/XMLSchema-instance" xsi:noNamespaceSchemaLocation="http://sumo.dlr.de/xsd/routes_file.xsd">
	<vType id="veh_passenger" vClass="passenger"/>
	<trip depart="0.00" departLane="best" from="in1" id="veh17219" to="out3" type="veh_passenger"/>
	<trip depart="0.00" departLane="best" from="in9" id="veh17619" to="out1" type="veh_passenger"/>
	<trip depart="0.00" departLane="best" from="in10" id="veh18019" to="out3" type="veh_passenger"/>
	<trip depart="0.00" departLane="best" from="in11" id="veh18219" to="out3" type="veh_passenger"/>
	<trip depart="0.00" departLane="best" from="in12" id="veh18419" to="out3" type="veh_passenger"/>
	<trip depart="0.00" departLane="best" from="in13" id="veh18619" to="out3" type="veh_passenger"/>
	<trip depart="0.00" departLane="best" from="in14" id="veh18819" to="out3" type="veh_passenger"/>
	<trip depart="0.00" departLane="best" from="in15" id="veh19019" to="out1" type="veh_passenger"/>
	<trip depart="0.21" departLane="best" from="120426535" id="veh1" to="-749229816#2" type="veh_passenger"/>
	<trip depart="0.42" departLane="best" from="283538690#7" id="veh2" to="237011435#1" type="veh_passenger"/>
	<trip depart="0.63" departLane="best" from="55885542#0" id="veh3" to="-301932470#0" type="veh_passenger"/>
	<trip depart="0.84" departLane="best" from="150522803" id="veh4" to="-159791623#0" type="veh_passenger"/>
	<trip depart="1.05" departLane="best" from="-72701418#2" id="veh5" to="163056993#0-AddedOnRampEdge" type="veh_passenger"/>
	<trip depart="1.25" departLane="best" from="-154198156#1" id="veh6" to="-657913845#0" type="veh_passenger"/>
	<trip depart="1.46" departLane="best" from="227135615#1" id="veh7" to="170478068#0" type="veh_passenger"/>
	<trip depart="1.67" departLane="best" from="-743595597#2" id="veh8" to="176576459#2" type="veh_passenger"/>
	<trip depart="1.88" departLane="best" from="42411413#4" id="veh9" to="-119617627#0" type="veh_passenger"/>
	<trip depart="2.30" departLane="best" from="127635201" id="veh11" to="-518469011#9" type="veh_passenger"/>
	<trip depart="2.51" departLane="best" from="80318966#2" id="veh12" to="122100440#0" type="veh_passenger"/>
	<trip depart="2.72" departLane="best" from="-32954781#8" id="veh13" to="-33457266#3" type="veh_passenger"/>
	<trip depart="2.93" departLane="best" from="498062279" id="veh14" to="182042887" type="veh_passenger"/>
	<trip depart="3.14" departLane="best" from="42399185#2" id="veh15" to="26953571#1" type="veh_passenger"/>
	<trip depart="3.35" departLane="best" from="169352441#2" id="veh16" to="849487529#1-AddedOnRampEdge" type="veh_passenger"/>
	<trip depart="3.55" departLane="best" from="136597126#2" id="veh17" to="171981481#2" type="veh_passenger"/>
	<trip depart="3.76" departLane="best" from="443721150#0" id="veh18" to="193139920#1" type="veh_passenger"/>
	<trip depart="3.97" departLane="best" from="5169081#1-AddedOnRampEdge" id="veh19" to="175210693#12" type="veh_passenger"/>
	<trip depart="4.18" departLane="best" from="25214182#2" id="veh20" to="-177353867#12" type="veh_passenger"/>
	<trip depart="4.39" departLane="best" from="-761099453#0" id="veh21" to="121399158#1" type="veh_passenger"/>
	<trip depart="4.60" departLane="best" from="-27265187#3" id="veh22" to="-83689275#4" type="veh_passenger"/>
	<trip depart="4.81" departLane="best" from="-369334399#1" id="veh23" to="120426543#7" type="veh_passenger"/>
	<trip depart="5.02" departLane="best" departSpeed="max" from="220917824#0" id="veh24" to="128883576" type="veh_passenger"/>
	<trip depart="5.23" departLane="best" from="136512002#3" id="veh25" to="-682588653#2" type="veh_passenger"/>
	<trip depart="5.44" departLane="best" departSpeed="max" from="116920072" id="veh26" to="686996981#1" type="veh_passenger"/>
	<trip depart="5.65" departLane="best" from="227131928#2" id="veh27" to="182857678#0" type="veh_passenger"/>
	<trip depart="5.85" departLane="best" from="-545585790#0" id="veh28" to="26953570#2" type="veh_passenger"/>
	<trip depart="6.27" departLane="best" from="93467796#1" id="veh30" to="22270616#3" type="veh_passenger"/>
	<trip depart="6.48" departLane="best" departSpeed="max" from="172431854" id="veh31" to="240367923#3" type="veh_passenger"/>
	<trip depart="6.69" departLane="best" from="4822345#11" id="veh32" to="369334397#0" type="veh_passenger"/>
	<trip depart="6.90" departLane="best" from="-761099462" id="veh33" to="-161453474#1" type="veh_passenger"/>
	<trip depart="7.11" departLane="best" from="121510218#3" id="veh34" to="116920065" type="veh_passenger"/>
	<trip depart="7.32" departLane="best" from="-682588661" id="veh35" to="739539781#1" type="veh_passenger"/>
	<trip depart="7.53" departLane="best" from="545585486#19" id="veh36" to="121399458" type="veh_passenger"/>
	<trip depart="7.74" departLane="best" from="227668227#9" id="veh37" to="142101048#2" type="veh_passenger"/>
	<trip depart="7.95" departLane="best" from="657913826#6" id="veh38" to="159783519" type="veh_passenger"/>
	<trip depart="8.36" departLane="best" from="174144374-AddedOffRampEdge" id="veh40" to="114109018#4-AddedOnRampEdge" type="veh_passenger"/>
	<trip depart="8.78" departLane="best" from="143599463" id="veh42" to="-72701418#2" type="veh_passenger"/>
	<trip depart="8.99" departLane="best" from="in2" id="veh43" to="163825161#0" type="veh_passenger"/>
	<trip depart="9.00" departLane="best" from="in1" id="veh17220" to="out2" type="veh_passenger"/>
	<trip depart="9.00" departLane="best" from="in9" id="veh17620" to="out1" type="veh_passenger"/>
	<trip depart="9.20" departLane="best" from="-32954719#0" id="veh44" to="-182857673#2" type="veh_passenger"/>
	<trip depart="9.41" departLane="best" from="-40696643#5" id="veh45" to="217106666#4" type="veh_passenger"/>
	<trip depart="9.62" departLane="best" from="42353181#1" id="veh46" to="150608622#0-AddedOffRampEdge" type="veh_passenger"/>
	<trip depart="9.83" departLane="best" from="-22799951#1" id="veh47" to="136867393#0" type="veh_passenger"/>
	<trip depart="10.04" departLane="best" from="in1" id="veh48" to="165628818#1-AddedOnRampEdge" type="veh_passenger"/>
	<trip depart="10.45" departLane="best" from="-121510228#5" id="veh50" to="26812147#2" type="veh_passenger"/>
	<trip depart="10.66" departLane="best" from="240367923#0" id="veh51" to="169352437#4" type="veh_passenger"/>
	<trip depart="10.87" departLane="best" departSpeed="max" from="116920072" id="veh52" to="22270616#4" type="veh_passenger"/>
	<trip depart="11.29" departLane="best" from="159782794#2" id="veh54" to="761099421#0" type="veh_passenger"/>
	<trip depart="11.50" departLane="best" from="545585486#13" id="veh55" to="114393690#0" type="veh_passenger"/>
	<trip depart="11.71" departLane="best" departSpeed="max" from="163056989#0" id="veh56" to="-55820165#2" type="veh_passenger"/>
	<trip depart="11.92" departLane="best" from="631912910#1" id="veh57" to="543824372#0" type="veh_passenger"/>
	<trip depart="12.13" departLane="best" from="121399210#1" id="veh58" to="22270614" type="veh_passenger"/>
	<trip depart="12.34" departLane="best" from="191049913#2" id="veh59" to="-513378595#1" type="veh_passenger"/>
	<trip depart="12.54" departLane="best" from="32954774#0" id="veh60" to="169447019#4" type="veh_passenger"/>
	<trip depart="12.75" departLane="best" from="392552185#1" id="veh61" to="165628850#0" type="veh_passenger"/>
	<trip depart="12.96" departLane="best" from="-106617830" id="veh62" to="121778742#5-AddedOffRampEdge" type="veh_passenger"/>
	<trip depart="13.17" departLane="best" from="-128753742#6" id="veh63" to="666327599#1" type="veh_passenger"/>
	<trip depart="13.38" departLane="best" from="545585564#6" id="veh64" to="443721151#4" type="veh_passenger"/>
	<trip depart="13.59" departLane="best" from="121399375#0" id="veh65" to="-217989191#0" type="veh_passenger"/>
	<trip depart="13.80" departLane="best" from="545585521#1" id="veh66" to="739539791#1" type="veh_passenger"/>
	<trip depart="14.01" departLane="best" from="-301932466#0" id="veh67" to="161460524#6" type="veh_passenger"/>
	<trip depart="14.22" departLane="best" from="-243543663#1" id="veh68" to="30784174#2" type="veh_passenger"/>
	<trip depart="14.43" departLane="best" from="33455540" id="veh69" to="-42655136#3" type="veh_passenger"/>
	<trip depart="14.64" departLane="best" from="161355940#0" id="veh70" to="171981479-AddedOffRampEdge" type="veh_passenger"/>
	<trip depart="15.05" departLane="best" from="150608622#0" id="veh72" to="-682588663#0" type="veh_passenger"/>
	<trip depart="15.26" departLane="best" from="169711582#2" id="veh73" to="26953571#1-AddedOnRampEdge" type="veh_passenger"/>
	<trip depart="15.47" departLane="best" from="-658253362#1" id="veh74" to="121399414" type="veh_passenger"/>
	<trip depart="15.68" departLane="best" from="93467825#9" id="veh75" to="227135615#2" type="veh_passenger"/>
	<trip depart="15.89" departLane="best" from="154526750#0-AddedOnRampEdge" id="veh76" to="164899642#0" type="veh_passenger"/>
	<trip depart="16.10" departLane="best" from="-42399986#1" id="veh77" to="-761099421#0" type="veh_passenger"/>
	<trip depart="16.31" departLane="best" from="-80319243" id="veh78" to="-743595591#0" type="veh_passenger"/>
	<trip depart="16.73" departLane="best" from="-761099461" id="veh80" to="628027960#1" type="veh_passenger"/>
	<trip depart="16.94" departLane="best" from="513378596#0" id="veh81" to="-248637750#2" type="veh_passenger"/>
	<trip depart="17.14" departLane="best" from="-852490410#3" id="veh82" to="234435441-AddedOnRampEdge" type="veh_passenger"/>
	<trip depart="17.56" departLane="best" from="686996992#1" id="veh84" to="174933445#1" type="veh_passenger"/>
	<trip depart="17.98" departLane="best" from="42399986#1" id="veh86" to="-628042962#0" type="veh_passenger"/>
	<trip depart="18.00" departLane="best" from="in1" id="veh17221" to="out3" type="veh_passenger"/>
	<trip depart="18.00" departLane="best" from="in9" id="veh17621" to="out3" type="veh_passenger"/>
	<trip depart="18.00" departLane="best" from="in10" id="veh18020" to="out2" type="veh_passenger"/>
	<trip depart="18.00" departLane="best" from="in11" id="veh18220" to="out1" type="veh_passenger"/>
	<trip depart="18.00" departLane="best" from="in12" id="veh18420" to="out2" type="veh_passenger"/>
	<trip depart="18.00" departLane="best" from="in13" id="veh18620" to="out2" type="veh_passenger"/>
	<trip depart="18.00" departLane="best" from="in14" id="veh18820" to="out1" type="veh_passenger"/>
	<trip depart="18.00" departLane="best" from="in15" id="veh19020" to="out2" type="veh_passenger"/>
	<trip depart="18.19" departLane="best" from="-33457660#2" id="veh87" to="152586238#1" type="veh_passenger"/>
	<trip depart="18.40" departLane="best" from="150608622#1" id="veh88" to="161287539#2" type="veh_passenger"/>
	<trip depart="18.61" departLane="best" from="27081693#2" id="veh89" to="234435459#2" type="veh_passenger"/>
	<trip depart="18.82" departLane="best" from="865466545#0" id="veh90" to="-365853166#0" type="veh_passenger"/>
	<trip depart="19.03" departLane="best" departSpeed="max" from="144929505#0" id="veh91" to="122346047" type="veh_passenger"/>
	<trip depart="19.24" departLane="best" from="5169081#1" id="veh92" to="-931969212#4" type="veh_passenger"/>
	<trip depart="19.44" departLane="best" from="-628042962#4" id="veh93" to="156469344#5-AddedOffRampEdge" type="veh_passenger"/>
	<trip depart="19.65" departLane="best" from="150522803" id="veh94" to="120491943" type="veh_passenger"/>
	<trip depart="19.86" departLane="best" from="106617833#1" id="veh95" to="658253363#1" type="veh_passenger"/>
	<trip depart="20.07" departLane="best" from="156346934#5" id="veh96" to="513262258#4" type="veh_passenger"/>
	<trip depart="20.28" departLane="best" from="171981488" id="veh97" to="-182857678#5" type="veh_passenger"/>
	<trip depart="20.49" departLane="best" from="out1" id="veh98" to="466271889#7" type="veh_passenger"/>
	<trip depart="20.70" departLane="best" from="83995265#0" id="veh99" to="658421578" type="veh_passenger"/>
	<trip depart="21.12" departLane="best" from="161463768#4" id="veh101" to="-686996775#1" type="veh_passenger"/>
	<trip depart="21.33" departLane="best" from="143749968#1" id="veh102" to="-226511228#4" type="veh_passenger"/>
	<trip depart="21.54" departLane="best" from="136702236" id="veh103" to="865466544#2" type="veh_passenger"/>
	<trip depart="21.95" departLane="best" from="159783334" id="veh105" to="150608626#0" type="veh_passenger"/>
	<trip depart="22.16" departLane="best" from="80318966#3" id="veh106" to="935258514" type="veh_passenger"/>
	<trip depart="22.37" departLane="best" from="172180975#0" id="veh107" to="26679382" type="veh_passenger"/>
	<trip depart="22.58" departLane="best" from="-518469011#8" id="veh108" to="121399172#9" type="veh_passenger"/>
	<trip depart="22.79" departLane="best" from="83892649#3" id="veh109" to="175210694#1" type="veh_passenger"/>
	<trip depart="23.00" departLane="best" from="170473547#1" id="veh110" to="29235183#7" type="veh_passenger"/>
	<trip depart="23.21" departLane="best" from="-217610413#2" id="veh111" to="176576450" type="veh_passenger"/>
	<trip depart="23.42" departLane="best" departSpeed="max" from="163057032#0" id="veh112" to="498275479" type="veh_passenger"/>
	<trip depart="23.63" departLane="best" from="-543824364#4" id="veh113" to="81813449" type="veh_passenger"/>
	<trip depart="24.04" departLane="best" from="178363614#0" id="veh115" to="235466190#1" type="veh_passenger"/>
	<trip depart="24.25" departLane="best" from="-83892649#2" id="veh116" to="-42398978#0" type="veh_passenger"/>
	<trip depart="24.46" departLane="best" from="55885442#0" id="veh117" to="-868296032#1" type="veh_passenger"/>
	<trip depart="24.67" departLane="best" from="177353880#0" id="veh118" to="194922778#2" type="veh_passenger"/>
	<trip depart="24.88" departLane="best" from="146452467" id="veh119" to="176576448#7" type="veh_passenger"/>
	<trip depart="25.09" departLane="best" from="165628814#1" id="veh120" to="686996772#5" type="veh_passenger"/>
	<trip depart="25.30" departLane="best" from="-658421576#0" id="veh121" to="26679311#1" type="veh_passenger"/>
	<trip depart="25.51" departLane="best" from="-852490411#1" id="veh122" to="142101048#2-AddedOffRampEdge" type="veh_passenger"/>
	<trip depart="25.93" departLane="best" from="121510221#4" id="veh124" to="29235323#7" type="veh_passenger"/>
	<trip depart="26.14" departLane="best" from="-25207520#9" id="veh125" to="159783479#1" type="veh_passenger"/>
	<trip depart="26.34" departLane="best" from="-255784669#1" id="veh126" to="-686996772#3" type="veh_passenger"/>
	<trip depart="26.55" departLane="best" from="116920065" id="veh127" to="682588664" type="veh_passenger"/>
	<trip depart="26.76" departLane="best" from="545585790#3" id="veh128" to="545585486#5" type="veh_passenger"/>
	<trip depart="26.97" departLane="best" from="136512001#7" id="veh129" to="-543824364#1" type="veh_passenger"/>
	<trip depart="27.00" departLane="best" from="in1" id="veh17222" to="out2" type="veh_passenger"/>
	<trip depart="27.00" departLane="best" from="in9" id="veh17622" to="out1" type="veh_passenger"/>
	<trip depart="27.18" departLane="best" from="466271889#4" id="veh130" to="249229903#1" type="veh_passenger"/>
	<trip depart="27.39" departLane="best" from="193107919" id="veh131" to="886900163" type="veh_passenger"/>
	<trip depart="27.60" departLane="best" from="227668227#16" id="veh132" to="-119617631#3" type="veh_passenger"/>
	<trip depart="27.81" departLane="best" from="42412801#5" id="veh133" to="121399195#3" type="veh_passenger"/>
	<trip depart="28.02" departLane="best" from="229610043#3" id="veh134" to="690857095#2" type="veh_passenger"/>
	<trip depart="28.23" departLane="best" from="-444000967#0" id="veh135" to="-42355001#5" type="veh_passenger"/>
	<trip depart="28.64" departLane="best" from="119980740#7-AddedOffRampEdge" id="veh137" to="182047060#0" type="veh_passenger"/>
	<trip depart="28.85" departLane="best" from="26812136#1" id="veh138" to="-658421571#0" type="veh_passenger"/>
	<trip depart="29.06" departLane="best" from="22072334#1-AddedOffRampEdge" id="veh139" to="114393693#3" type="veh_passenger"/>
	<trip depart="29.27" departLane="best" from="161466911#1" id="veh140" to="628027960#0" type="veh_passenger"/>
	<trip depart="29.48" departLane="best" from="4845099" id="veh141" to="-32954774#6" type="veh_passenger"/>
	<trip depart="29.69" departLane="best" from="150608622#1" id="veh142" to="119980765#0-AddedOffRampEdge" type="veh_passenger"/>
	<trip depart="29.90" departLane="best" from="-106620137#5" id="veh143" to="33457266#4" type="veh_passenger"/>
	<trip depart="30.11" departLane="best" from="220917827#4" id="veh144" to="114109017" type="veh_passenger"/>
	<trip depart="30.32" departLane="best" from="29201277#1-AddedOnRampEdge" id="veh145" to="171981481#2" type="veh_passenger"/>
	<trip depart="30.53" departLane="best" from="152429655#5" id="veh146" to="-120491976" type="veh_passenger"/>
	<trip depart="30.73" departLane="best" from="-256756800" id="veh147" to="545585790#3" type="veh_passenger"/>
	<trip depart="30.94" departLane="best" from="628042950" id="veh148" to="170613311#0" type="veh_passenger"/>
	<trip depart="31.15" departLane="best" from="47605548-AddedOffRampEdge" id="veh149" to="176576448#11" type="veh_passenger"/>
	<trip depart="31.36" departLane="best" from="-499473601#0" id="veh150" to="-42412751#4" type="veh_passenger"/>
	<trip depart="31.78" departLane="best" from="42355001#1" id="veh152" to="50633438#2" type="veh_passenger"/>
	<trip depart="31.99" departLane="best" from="60105853#0" id="veh153" to="-682588655#1" type="veh_passenger"/>
	<trip depart="32.20" departLane="best" from="105276038#2" id="veh154" to="-373350938#0" type="veh_passenger"/>
	<trip depart="32.62" departLane="best" from="144929508#1" id="veh156" to="194922783#8" type="veh_passenger"/>
	<trip depart="32.83" departLane="best" from="-518469011#5" id="veh157" to="666329542" type="veh_passenger"/>
	<trip depart="33.03" departLane="best" from="519216753" id="veh158" to="852490411#0" type="veh_passenger"/>
	<trip depart="33.24" departLane="best" from="42411440#3" id="veh159" to="545585574#2" type="veh_passenger"/>
	<trip depart="33.66" departLane="best" from="121991173#1" id="veh161" to="682588653#2" type="veh_passenger"/>
	<trip depart="33.87" departLane="best" from="42365146#0" id="veh162" to="5169081#1-AddedOnRampEdge" type="veh_passenger"/>
	<trip depart="34.08" departLane="best" from="42411440#3" id="veh163" to="116920054#1-AddedOnRampEdge" type="veh_passenger"/>
	<trip depart="34.50" departLane="best" from="544521969" id="veh165" to="500556388#0" type="veh_passenger"/>
	<trip depart="34.71" departLane="best" from="-749229816#0" id="veh166" to="42412488#1" type="veh_passenger"/>
	<trip depart="34.92" departLane="best" from="159791640#2" id="veh167" to="121399258" type="veh_passenger"/>
	<trip depart="35.13" departLane="best" from="42354892#1" id="veh168" to="-761099446#1" type="veh_passenger"/>
	<trip depart="35.33" departLane="best" from="-144929523#7" id="veh169" to="-631902653#1" type="veh_passenger"/>
	<trip depart="35.54" departLane="best" from="121988943#0" id="veh170" to="518469005#1" type="veh_passenger"/>
	<trip depart="35.75" departLane="best" from="83800921#3" id="veh171" to="120491954" type="veh_passenger"/>
	<trip depart="35.96" departLane="best" from="226511228#3" id="veh172" to="143749968#0" type="veh_passenger"/>
	<trip depart="36.00" departLane="best" from="in1" id="veh17223" to="out2" type="veh_passenger"/>
	<trip depart="36.00" departLane="best" from="in9" id="veh17623" to="out3" type="veh_passenger"/>
	<trip depart="36.00" departLane="best" from="in10" id="veh18021" to="out1" type="veh_passenger"/>
	<trip depart="36.00" departLane="best" from="in11" id="veh18221" to="out3" type="veh_passenger"/>
	<trip depart="36.00" departLane="best" from="in12" id="veh18421" to="out2" type="veh_passenger"/>
	<trip depart="36.00" departLane="best" from="in13" id="veh18621" to="out3" type="veh_passenger"/>
	<trip depart="36.00" departLane="best" from="in14" id="veh18821" to="out3" type="veh_passenger"/>
	<trip depart="36.00" departLane="best" from="in15" id="veh19021" to="out3" type="veh_passenger"/>
	<trip depart="36.17" departLane="best" from="863690577#0" id="veh173" to="169352437#0" type="veh_passenger"/>
	<trip depart="36.38" departLane="best" from="739539780#0" id="veh174" to="-42355001#4" type="veh_passenger"/>
	<trip depart="36.59" departLane="best" from="849487526#1" id="veh175" to="-55820165#1" type="veh_passenger"/>
	<trip depart="36.80" departLane="best" departSpeed="max" from="818698304#0" id="veh176" to="116920046" type="veh_passenger"/>
	<trip depart="37.22" departLane="best" from="27081675" id="veh178" to="121399440#1" type="veh_passenger"/>
	<trip depart="37.43" departLane="best" from="188356145#0" id="veh179" to="163825703" type="veh_passenger"/>
	<trip depart="37.63" departLane="best" from="136968705" id="veh180" to="175210686" type="veh_passenger"/>
	<trip depart="37.84" departLane="best" from="106622973#3" id="veh181" to="255784666" type="veh_passenger"/>
	<trip depart="38.05" departLane="best" from="-106620123#0" id="veh182" to="658421572#6" type="veh_passenger"/>
	<trip depart="38.26" departLane="best" from="169486003#2" id="veh183" to="26812135" type="veh_passenger"/>
	<trip depart="38.47" departLane="best" from="29204369#0-AddedOffRampEdge" id="veh184" to="234435447#4" type="veh_passenger"/>
	<trip depart="38.68" departLane="best" from="128753742#6" id="veh185" to="-243543672#1" type="veh_passenger"/>
	<trip depart="38.89" departLane="best" from="229610047" id="veh186" to="121988943#1" type="veh_passenger"/>
	<trip depart="39.10" departLane="best" from="121399480" id="veh187" to="4822362#1" type="veh_passenger"/>
	<trip depart="39.31" departLane="best" from="26812165" id="veh188" to="121399204#1" type="veh_passenger"/>
	<trip depart="39.52" departLane="best" from="121399410#3" id="veh189" to="144929524#1" type="veh_passenger"/>
	<trip depart="39.73" departLane="best" from="143832436" id="veh190" to="121399172#4" type="veh_passenger"/>
	<trip depart="39.93" departLane="best" from="-42415934#4" id="veh191" to="150522799" type="veh_passenger"/>
	<trip depart="40.14" departLane="best" from="739539781#0" id="veh192" to="237011435#3" type="veh_passenger"/>
	<trip depart="40.35" departLane="best" from="627964458#1" id="veh193" to="193102401#0" type="veh_passenger"/>
	<trip depart="40.56" departLane="best" from="121399240" id="veh194" to="170628889#3" type="veh_passenger"/>
	<trip depart="40.77" departLane="best" from="-105276038#1" id="veh195" to="121399145#2" type="veh_passenger"/>
	<trip depart="40.98" departLane="best" from="152429678#1" id="veh196" to="175210696#3" type="veh_passenger"/>
	<trip depart="41.19" departLane="best" from="227668227#4" id="veh197" to="159794815#0" type="veh_passenger"/>
	<trip depart="41.40" departLane="best" from="156346934#0" id="veh198" to="-686996775#1" type="veh_passenger"/>
	<trip depart="41.61" departLane="best" from="161355924#2" id="veh199" to="60105853#1" type="veh_passenger"/>
	<trip depart="41.82" departLane="best" from="42355000#2" id="veh200" to="-545585564#4" type="veh_passenger"/>
	<trip depart="42.03" departLane="best" from="-29812789#0" id="veh201" to="164601688#2-AddedOffRampEdge" type="veh_passenger"/>
	<trip depart="42.23" departLane="best" from="219487086#4" id="veh202" to="122020348#4" type="veh_passenger"/>
	<trip depart="42.44" departLane="best" from="42454165" id="veh203" to="29235323#5-AddedOnRampEdge" type="veh_passenger"/>
	<trip depart="42.65" departLane="best" departSpeed="max" from="234442040" id="veh204" to="-761099420#1" type="veh_passenger"/>
	<trip depart="42.86" departLane="best" from="-657914007" id="veh205" to="-150522796#1" type="veh_passenger"/>
	<trip depart="43.07" departLane="best" from="-868296016#0" id="veh206" to="161355924#2" type="veh_passenger"/>
	<trip depart="43.28" departLane="best" from="498065515#5" id="veh207" to="-25207520#7" type="veh_passenger"/>
	<trip depart="43.70" departLane="best" from="-657913826#11" id="veh209" to="242787707#1" type="veh_passenger"/>
	<trip depart="43.91" departLane="best" from="162546312#5" id="veh210" to="-856269190#0" type="veh_passenger"/>
	<trip depart="44.12" departLane="best" from="227668229#3" id="veh211" to="-114108307#1" type="veh_passenger"/>
	<trip depart="44.32" departLane="best" from="294630504" id="veh212" to="33455857" type="veh_passenger"/>
	<trip depart="44.95" departLane="best" from="164919787#1" id="veh215" to="-182857678#0" type="veh_passenger"/>
	<trip depart="45.00" departLane="best" from="in1" id="veh17224" to="out1" type="veh_passenger"/>
	<trip depart="45.00" departLane="best" from="in9" id="veh17624" to="out2" type="veh_passenger"/>
	<trip depart="45.16" departLane="best" from="105276036#1" id="veh216" to="4845102" type="veh_passenger"/>
	<trip depart="45.37" departLane="best" from="159783483" id="veh217" to="42360444#0" type="veh_passenger"/>
	<trip depart="45.79" departLane="best" from="178363614#1" id="veh219" to="743595597#3" type="veh_passenger"/>
	<trip depart="46.00" departLane="best" from="55885442#5" id="veh220" to="191049913#1" type="veh_passenger"/>
	<trip depart="46.42" departLane="best" from="44780841#1" id="veh222" to="170628889#3" type="veh_passenger"/>
	<trip depart="46.83" departLane="best" from="161355930#3" id="veh224" to="114108332#1-AddedOnRampEdge" type="veh_passenger"/>
	<trip depart="47.46" departLane="best" departSpeed="max" from="219330749#0" id="veh227" to="119980749#1-AddedOnRampEdge" type="veh_passenger"/>
	<trip depart="47.67" departLane="best" from="-264247408#4" id="veh228" to="121399145#0" type="veh_passenger"/>
	<trip depart="47.88" departLane="best" from="119617637#6" id="veh229" to="121510282#3" type="veh_passenger"/>
	<trip depart="48.09" departLane="best" departSpeed="max" from="170261283#0" id="veh230" to="-481724518#2" type="veh_passenger"/>
	<trip depart="48.30" departLane="best" from="-827594871#0" id="veh231" to="241919803#2" type="veh_passenger"/>
	<trip depart="48.51" departLane="best" from="255512181" id="veh232" to="-22799992#0" type="veh_passenger"/>
	<trip depart="48.72" departLane="best" from="144929520#1" id="veh233" to="170473546" type="veh_passenger"/>
	<trip depart="48.92" departLane="best" from="145291215#19" id="veh234" to="-663819976#0" type="veh_passenger"/>
	<trip depart="49.13" departLane="best" from="150522779#1" id="veh235" to="626121204" type="veh_passenger"/>
	<trip depart="49.34" departLane="best" from="176576454#1" id="veh236" to="241919804#1-AddedOnRampEdge" type="veh_passenger"/>
	<trip depart="49.55" departLane="best" from="50625375#0" id="veh237" to="32954719#3" type="veh_passenger"/>
	<trip depart="49.76" departLane="best" from="136867389#1" id="veh238" to="-114108326" type="veh_passenger"/>
	<trip depart="49.97" departLane="best" departSpeed="max" from="128620792#0" id="veh239" to="297715143#1" type="veh_passenger"/>
	<trip depart="50.18" departLane="best" from="499427389#4" id="veh240" to="761099417" type="veh_passenger"/>
	<trip depart="50.39" departLane="best" from="146451498" id="veh241" to="29235183#12" type="veh_passenger"/>
	<trip depart="50.60" departLane="best" from="170628888" id="veh242" to="182013178#2" type="veh_passenger"/>
	<trip depart="50.81" departLane="best" from="-743595597#3" id="veh243" to="-72701418#3" type="veh_passenger"/>
	<trip depart="51.02" departLane="best" from="154197830#0" id="veh244" to="-159782793#0" type="veh_passenger"/>
	<trip depart="51.22" departLane="best" from="122345027#2" id="veh245" to="237581600#21" type="veh_passenger"/>
	<trip depart="51.64" departLane="best" from="161296939#3" id="veh247" to="-42415934#1" type="veh_passenger"/>
	<trip depart="51.85" departLane="best" from="208218220#0" id="veh248" to="-155236367#0" type="veh_passenger"/>
	<trip depart="52.06" departLane="best" from="139882019#0" id="veh249" to="174646963#1" type="veh_passenger"/>
	<trip depart="52.27" departLane="best" from="-155236367#2" id="veh250" to="226631638#1" type="veh_passenger"/>
	<trip depart="52.48" departLane="best" from="-46033018#1" id="veh251" to="159791637#8" type="veh_passenger"/>
	<trip depart="52.69" departLane="best" from="-182857678#1" id="veh252" to="136702236" type="veh_passenger"/>
	<trip depart="52.90" departLane="best" from="-686996768" id="veh253" to="121781874" type="veh_passenger"/>
	<trip depart="53.11" departLane="best" from="32594357#1-AddedOffRampEdge" id="veh254" to="136702236" type="veh_passenger"/>
	<trip depart="53.32" departLane="best" from="297715143#17" id="veh255" to="444000967#3" type="veh_passenger"/>
	<trip depart="53.52" departLane="best" from="106620128#1" id="veh256" to="-280166010#4" type="veh_passenger"/>
	<trip depart="53.73" departLane="best" from="-128753742#5" id="veh257" to="169447019#4" type="veh_passenger"/>
	<trip depart="53.94" departLane="best" from="out3" id="veh258" to="128620758" type="veh_passenger"/>