<additional xmlns:xsi="http://www.w3.org/2001/XMLSchema-instance" xsi:noNamespaceSchemaLocation="http://sumo.dlr.de/xsd/additional_file.xsd">
    <e1Detector file="e1output.xml" freq="3" friendlyPos="x" id="e1det_-114108319#0_0" lane="-114108319#0_0" pos="143.8"/>
    <e1Detector file="e1output.xml" freq="3" friendlyPos="x" id="e1det_114108321_0" lane="114108321_0" pos="113.76"/>
    <e1Detector file="e1output.xml" freq="3" friendlyPos="x" id="e1det_165628816_0" lane="165628816_0" pos="26.49"/>
    <e1Detector file="e1output.xml" freq="3" friendlyPos="x" id="e1det_-119617637#10_0" lane="-119617637#10_0" pos="32.72"/>
    <e1Detector file="e1output.xml" freq="3" friendlyPos="x" id="e1det_119617637#7_0" lane="119617637#7_0" pos="128.64000000000001"/>
    <e1Detector file="e1output.xml" freq="3" friendlyPos="x" id="e1det_121510234#17_0" lane="121510234#17_0" pos="143.08"/>
    <e1Detector file="e1output.xml" freq="3" friendlyPos="x" id="e1det_161299751#0_0" lane="161299751#0_0" pos="613.76"/>
    <e1Detector file="e1output.xml" freq="3" friendlyPos="x" id="e1det_161299751#0_1" lane="161299751#0_1" pos="613.76"/>
    <e1Detector file="e1output.xml" freq="3" friendlyPos="x" id="e1det_161355964#2_0" lane="161355964#2_0" pos="618.05"/>
    <e1Detector file="e1output.xml" freq="3" friendlyPos="x" id="e1det_27081693#3_0" lane="27081693#3_0" pos="139.92000000000002"/>
    <e1Detector file="e1output.xml" freq="3" friendlyPos="x" id="e1det_27081693#3_1" lane="27081693#3_1" pos="139.92000000000002"/>
    <e1Detector file="e1output.xml" freq="3" friendlyPos="x" id="e1det_-119980756#4_0" lane="-119980756#4_0" pos="937.59"/>
    <e1Detector file="e1output.xml" freq="3" friendlyPos="x" id="e1det_-119980759#5_0" lane="-119980759#5_0" pos="214.11"/>
    <e1Detector file="e1output.xml" freq="3" friendlyPos="x" id="e1det_119980740#4_0" lane="119980740#4_0" pos="488.95"/>
    <e1Detector file="e1output.xml" freq="3" friendlyPos="x" id="e1det_119980756#2_0" lane="119980756#2_0" pos="298.35999999999996"/>
    <e1Detector file="e1output.xml" freq="3" friendlyPos="x" id="e1det_119980759#3_0" lane="119980759#3_0" pos="937.9499999999999"/>
    <e1Detector file="e1output.xml" freq="3" friendlyPos="x" id="e1det_121399189#2_0" lane="121399189#2_0" pos="214.11"/>
    <e1Detector file="e1output.xml" freq="3" friendlyPos="x" id="e1det_161466911#5_0" lane="161466911#5_0" pos="340.84999999999997"/>
    <e1Detector file="e1output.xml" freq="3" friendlyPos="x" id="e1det_161466911#5_1" lane="161466911#5_1" pos="340.84999999999997"/>
    <e1Detector file="e1output.xml" freq="3" friendlyPos="x" id="e1det_161466911#5_2" lane="161466911#5_2" pos="340.84999999999997"/>
    <e1Detector file="e1output.xml" freq="3" friendlyPos="x" id="e1det_42345998#10_0" lane="42345998#10_0" pos="378.26"/>
    <e1Detector file="e1output.xml" freq="3" friendlyPos="x" id="e1det_42345998#10_1" lane="42345998#10_1" pos="378.26"/>
    <e1Detector file="e1output.xml" freq="3" friendlyPos="x" id="e1det_42345998#10_2" lane="42345998#10_2" pos="378.26"/>
    <e1Detector file="e1output.xml" freq="3" friendlyPos="x" id="e1det_-121510282#1_0" lane="-121510282#1_0" pos="135.47"/>
    <e1Detector file="e1output.xml" freq="3" friendlyPos="x" id="e1det_-121510284#1_0" lane="-121510284#1_0" pos="903.18"/>
    <e1Detector file="e1output.xml" freq="3" friendlyPos="x" id="e1det_121510221#4_0" lane="121510221#4_0" pos="257.89"/>
    <e1Detector file="e1output.xml" freq="3" friendlyPos="x" id="e1det_121510231#14_0" lane="121510231#14_0" pos="303.59999999999997"/>
    <e1Detector file="e1output.xml" freq="3" friendlyPos="x" id="e1det_145291220#2_0" lane="145291220#2_0" pos="13.610000000000001"/>
    <e1Detector file="e1output.xml" freq="3" friendlyPos="x" id="e1det_-121778769#2_0" lane="-121778769#2_0" pos="222.57"/>
    <e1Detector file="e1output.xml" freq="3" friendlyPos="x" id="e1det_121778769#1_0" lane="121778769#1_0" pos="137.94"/>
    <e1Detector file="e1output.xml" freq="3" friendlyPos="x" id="e1det_182044603_0" lane="182044603_0" pos="86.76"/>
    <e1Detector file="e1output.xml" freq="3" friendlyPos="x" id="e1det_182044606#1_0" lane="182044606#1_0" pos="219.6"/>
    <e1Detector file="e1output.xml" freq="3" friendlyPos="x" id="e1det_-121778769#4_0" lane="-121778769#4_0" pos="228.99"/>
    <e1Detector file="e1output.xml" freq="3" friendlyPos="x" id="e1det_-42398512#0_0" lane="-42398512#0_0" pos="250.46"/>
    <e1Detector file="e1output.xml" freq="3" friendlyPos="x" id="e1det_121778769#3_0" lane="121778769#3_0" pos="1.5399999999999998"/>
    <e1Detector file="e1output.xml" freq="3" friendlyPos="x" id="e1det_-121981776#4_0" lane="-121981776#4_0" pos="8.58"/>
    <e1Detector file="e1output.xml" freq="3" friendlyPos="x" id="e1det_-122347705#1_0" lane="-122347705#1_0" pos="152.70000000000002"/>
    <e1Detector file="e1output.xml" freq="3" friendlyPos="x" id="e1det_121981776#3_0" lane="121981776#3_0" pos="128.26000000000002"/>
    <e1Detector file="e1output.xml" freq="3" friendlyPos="x" id="e1det_-121981776#5_0" lane="-121981776#5_0" pos="3.03"/>
    <e1Detector file="e1output.xml" freq="3" friendlyPos="x" id="e1det_121981776#4_0" lane="121981776#4_0" pos="8.58"/>
    <e1Detector file="e1output.xml" freq="3" friendlyPos="x" id="e1det_-121988914_0" lane="-121988914_0" pos="45.57"/>
    <e1Detector file="e1output.xml" freq="3" friendlyPos="x" id="e1det_177353870#3_0" lane="177353870#3_0" pos="163.94"/>
    <e1Detector file="e1output.xml" freq="3" friendlyPos="x" id="e1det_22799950#5_0" lane="22799950#5_0" pos="196.22"/>
    <e1Detector file="e1output.xml" freq="3" friendlyPos="x" id="e1det_-121988929#0_0" lane="-121988929#0_0" pos="188.5"/>
    <e1Detector file="e1output.xml" freq="3" friendlyPos="x" id="e1det_121988914_0" lane="121988914_0" pos="45.57"/>
    <e1Detector file="e1output.xml" freq="3" friendlyPos="x" id="e1det_156469343_0" lane="156469343_0" pos="203.85"/>
    <e1Detector file="e1output.xml" freq="3" friendlyPos="x" id="e1det_-121991173#1_0" lane="-121991173#1_0" pos="51.43"/>
    <e1Detector file="e1output.xml" freq="3" friendlyPos="x" id="e1det_121982785#5_0" lane="121982785#5_0" pos="7.680000000000001"/>
    <e1Detector file="e1output.xml" freq="3" friendlyPos="x" id="e1det_121982785#6_0" lane="121982785#6_0" pos="2.4299999999999997"/>
    <e1Detector file="e1output.xml" freq="3" friendlyPos="x" id="e1det_121982785#7_0" lane="121982785#7_0" pos="0.1"/>
    <e1Detector file="e1output.xml" freq="3" friendlyPos="x" id="e1det_122345027#0_0" lane="122345027#0_0" pos="0.1"/>
    <e1Detector file="e1output.xml" freq="3" friendlyPos="x" id="e1det_42454168#3_0" lane="42454168#3_0" pos="433.44"/>
    <e1Detector file="e1output.xml" freq="3" friendlyPos="x" id="e1det_865466546_0" lane="865466546_0" pos="77.68"/>
    <e1Detector file="e1output.xml" freq="3" friendlyPos="x" id="e1det_-121991960#6_0" lane="-121991960#6_0" pos="0.1"/>
    <e1Detector file="e1output.xml" freq="3" friendlyPos="x" id="e1det_-121991960#7_0" lane="-121991960#7_0" pos="0.1"/>
    <e1Detector file="e1output.xml" freq="3" friendlyPos="x" id="e1det_-171983190_0" lane="-171983190_0" pos="0.1"/>
    <e1Detector file="e1output.xml" freq="3" friendlyPos="x" id="e1det_-27265184#0_0" lane="-27265184#0_0" pos="0.1"/>
    <e1Detector file="e1output.xml" freq="3" friendlyPos="x" id="e1det_-27265184#2_0" lane="-27265184#2_0" pos="103.54"/>
    <e1Detector file="e1output.xml" freq="3" friendlyPos="x" id="e1det_121991960#5_0" lane="121991960#5_0" pos="51.6"/>
    <e1Detector file="e1output.xml" freq="3" friendlyPos="x" id="e1det_121991960#6_0" lane="121991960#6_0" pos="0.1"/>
    <e1Detector file="e1output.xml" freq="3" friendlyPos="x" id="e1det_121991960#7_0" lane="121991960#7_0" pos="0.1"/>
    <e1Detector file="e1output.xml" freq="3" friendlyPos="x" id="e1det_144929509#2_0" lane="144929509#2_0" pos="207.11"/>
    <e1Detector file="e1output.xml" freq="3" friendlyPos="x" id="e1det_144929509#3_0" lane="144929509#3_0" pos="1.7899999999999998"/>
    <e1Detector file="e1output.xml" freq="3" friendlyPos="x" id="e1det_144929524#2_0" lane="144929524#2_0" pos="209.47"/>
    <e1Detector file="e1output.xml" freq="3" friendlyPos="x" id="e1det_144929524#3_0" lane="144929524#3_0" pos="3.29"/>
    <e1Detector file="e1output.xml" freq="3" friendlyPos="x" id="e1det_144929524#4_0" lane="144929524#4_0" pos="0.1"/>
    <e1Detector file="e1output.xml" freq="3" friendlyPos="x" id="e1det_163825161#3_0" lane="163825161#3_0" pos="168.55"/>
    <e1Detector file="e1output.xml" freq="3" friendlyPos="x" id="e1det_163825161#4_0" lane="163825161#4_0" pos="3.88"/>
    <e1Detector file="e1output.xml" freq="3" friendlyPos="x" id="e1det_171983188#0_0" lane="171983188#0_0" pos="0.1"/>
    <e1Detector file="e1output.xml" freq="3" friendlyPos="x" id="e1det_171983189#0_0" lane="171983189#0_0" pos="0.1"/>
    <e1Detector file="e1output.xml" freq="3" friendlyPos="x" id="e1det_171983190_0" lane="171983190_0" pos="0.1"/>
    <e1Detector file="e1output.xml" freq="3" friendlyPos="x" id="e1det_240367934#6_0" lane="240367934#6_0" pos="53.49"/>
    <e1Detector file="e1output.xml" freq="3" friendlyPos="x" id="e1det_240367934#7_0" lane="240367934#7_0" pos="5.380000000000001"/>
    <e1Detector file="e1output.xml" freq="3" friendlyPos="x" id="e1det_240367934#8_0" lane="240367934#8_0" pos="0.1"/>
    <e1Detector file="e1output.xml" freq="3" friendlyPos="x" id="e1det_27265184#0_0" lane="27265184#0_0" pos="0.1"/>
    <e1Detector file="e1output.xml" freq="3" friendlyPos="x" id="e1det_-127485853#1_0" lane="-127485853#1_0" pos="122.7"/>
    <e1Detector file="e1output.xml" freq="3" friendlyPos="x" id="e1det_127485852#4_0" lane="127485852#4_0" pos="71.55000000000001"/>
    <e1Detector file="e1output.xml" freq="3" friendlyPos="x" id="e1det_136512009#8_0" lane="136512009#8_0" pos="120.24000000000001"/>
    <e1Detector file="e1output.xml" freq="3" friendlyPos="x" id="e1det_194922778#3_0" lane="194922778#3_0" pos="24.75"/>
    <e1Detector file="e1output.xml" freq="3" friendlyPos="x" id="e1det_-127485853#4_0" lane="-127485853#4_0" pos="126.39"/>
    <e1Detector file="e1output.xml" freq="3" friendlyPos="x" id="e1det_127485853#2_0" lane="127485853#2_0" pos="101.5"/>
    <e1Detector file="e1output.xml" freq="3" friendlyPos="x" id="e1det_136512016#1_0" lane="136512016#1_0" pos="97.11"/>
    <e1Detector file="e1output.xml" freq="3" friendlyPos="x" id="e1det_191050695#8_0" lane="191050695#8_0" pos="110.92"/>
    <e1Detector file="e1output.xml" freq="3" friendlyPos="x" id="e1det_-128576354#0_0" lane="-128576354#0_0" pos="0.1"/>
    <e1Detector file="e1output.xml" freq="3" friendlyPos="x" id="e1det_-128576354#0_1" lane="-128576354#0_1" pos="0.1"/>
    <e1Detector file="e1output.xml" freq="3" friendlyPos="x" id="e1det_-128576354#1_0" lane="-128576354#1_0" pos="0.1"/>
    <e1Detector file="e1output.xml" freq="3" friendlyPos="x" id="e1det_-128576354#1_1" lane="-128576354#1_1" pos="0.1"/>
    <e1Detector file="e1output.xml" freq="3" friendlyPos="x" id="e1det_-128576354#2_0" lane="-128576354#2_0" pos="0.1"/>
    <e1Detector file="e1output.xml" freq="3" friendlyPos="x" id="e1det_-128576354#2_1" lane="-128576354#2_1" pos="0.1"/>
    <e1Detector file="e1output.xml" freq="3" friendlyPos="x" id="e1det_-235466190#1_0" lane="-235466190#1_0" pos="188.31"/>
    <e1Detector file="e1output.xml" freq="3" friendlyPos="x" id="e1det_-235466190#1_1" lane="-235466190#1_1" pos="188.31"/>
    <e1Detector file="e1output.xml" freq="3" friendlyPos="x" id="e1det_-42943184#0_0" lane="-42943184#0_0" pos="3.4299999999999997"/>
    <e1Detector file="e1output.xml" freq="3" friendlyPos="x" id="e1det_128576354#0_0" lane="128576354#0_0" pos="0.1"/>
    <e1Detector file="e1output.xml" freq="3" friendlyPos="x" id="e1det_128576354#0_1" lane="128576354#0_1" pos="0.1"/>
    <e1Detector file="e1output.xml" freq="3" friendlyPos="x" id="e1det_128576354#1_0" lane="128576354#1_0" pos="0.1"/>
    <e1Detector file="e1output.xml" freq="3" friendlyPos="x" id="e1det_128576354#1_1" lane="128576354#1_1" pos="0.1"/>
    <e1Detector file="e1output.xml" freq="3" friendlyPos="x" id="e1det_128576354#2_0" lane="128576354#2_0" pos="0.1"/>
    <e1Detector file="e1output.xml" freq="3" friendlyPos="x" id="e1det_128576354#2_1" lane="128576354#2_1" pos="0.1"/>
    <e1Detector file="e1output.xml" freq="3" friendlyPos="x" id="e1det_128625056#2_0" lane="128625056#2_0" pos="428.62"/>
    <e1Detector file="e1output.xml" freq="3" friendlyPos="x" id="e1det_138684423#0_0" lane="138684423#0_0" pos="209.07"/>
    <e1Detector file="e1output.xml" freq="3" friendlyPos="x" id="e1det_138684423#0_1" lane="138684423#0_1" pos="209.07"/>
    <e1Detector file="e1output.xml" freq="3" friendlyPos="x" id="e1det_138693083_0" lane="138693083_0" pos="1045.48"/>
    <e1Detector file="e1output.xml" freq="3" friendlyPos="x" id="e1det_138693083_1" lane="138693083_1" pos="1045.48"/>
    <e1Detector file="e1output.xml" freq="3" friendlyPos="x" id="e1det_235466190#0_0" lane="235466190#0_0" pos="1054.6000000000001"/>
    <e1Detector file="e1output.xml" freq="3" friendlyPos="x" id="e1det_235466190#0_1" lane="235466190#0_1" pos="1054.6000000000001"/>
    <e1Detector file="e1output.xml" freq="3" friendlyPos="x" id="e1det_-128620742#1_0" lane="-128620742#1_0" pos="1009.4399999999999"/>
    <e1Detector file="e1output.xml" freq="3" friendlyPos="x" id="e1det_128620791#1_0" lane="128620791#1_0" pos="862.78"/>
    <e1Detector file="e1output.xml" freq="3" friendlyPos="x" id="e1det_165628843#2_0" lane="165628843#2_0" pos="261.77"/>
    <e1Detector file="e1output.xml" freq="3" friendlyPos="x" id="e1det_-128624211#0_0" lane="-128624211#0_0" pos="0.1"/>
    <e1Detector file="e1output.xml" freq="3" friendlyPos="x" id="e1det_-128624211#2_0" lane="-128624211#2_0" pos="108.33000000000001"/>
    <e1Detector file="e1output.xml" freq="3" friendlyPos="x" id="e1det_121778742#3_0" lane="121778742#3_0" pos="176.58"/>
    <e1Detector file="e1output.xml" freq="3" friendlyPos="x" id="e1det_121778742#3_1" lane="121778742#3_1" pos="176.58"/>
    <e1Detector file="e1output.xml" freq="3" friendlyPos="x" id="e1det_121778742#3_2" lane="121778742#3_2" pos="176.58"/>
    <e1Detector file="e1output.xml" freq="3" friendlyPos="x" id="e1det_121778742#4_0" lane="121778742#4_0" pos="0.1"/>
    <e1Detector file="e1output.xml" freq="3" friendlyPos="x" id="e1det_121778742#4_1" lane="121778742#4_1" pos="0.1"/>
    <e1Detector file="e1output.xml" freq="3" friendlyPos="x" id="e1det_121778742#4_2" lane="121778742#4_2" pos="0.1"/>
    <e1Detector file="e1output.xml" freq="3" friendlyPos="x" id="e1det_128624211#0_0" lane="128624211#0_0" pos="0.1"/>
    <e1Detector file="e1output.xml" freq="3" friendlyPos="x" id="e1det_128624218#2_0" lane="128624218#2_0" pos="119.25"/>
    <e1Detector file="e1output.xml" freq="3" friendlyPos="x" id="e1det_128624218#3_0" lane="128624218#3_0" pos="0.1"/>
    <e1Detector file="e1output.xml" freq="3" friendlyPos="x" id="e1det_128624218#4_0" lane="128624218#4_0" pos="0.1"/>
    <e1Detector file="e1output.xml" freq="3" friendlyPos="x" id="e1det_136512017_0" lane="136512017_0" pos="0.1"/>
    <e1Detector file="e1output.xml" freq="3" friendlyPos="x" id="e1det_136512027_0" lane="136512027_0" pos="0.1"/>
    <e1Detector file="e1output.xml" freq="3" friendlyPos="x" id="e1det_162546312#7_0" lane="162546312#7_0" pos="82.96000000000001"/>
    <e1Detector file="e1output.xml" freq="3" friendlyPos="x" id="e1det_162546312#7_1" lane="162546312#7_1" pos="82.96000000000001"/>
    <e1Detector file="e1output.xml" freq="3" friendlyPos="x" id="e1det_162546312#7_2" lane="162546312#7_2" pos="82.96000000000001"/>
    <e1Detector file="e1output.xml" freq="3" friendlyPos="x" id="e1det_163822326#0_0" lane="163822326#0_0" pos="0.1"/>
    <e1Detector file="e1output.xml" freq="3" friendlyPos="x" id="e1det_163822328#0_0" lane="163822328#0_0" pos="0.1"/>
    <e1Detector file="e1output.xml" freq="3" friendlyPos="x" id="e1det_163823781#5_0" lane="163823781#5_0" pos="203.75"/>
    <e1Detector file="e1output.xml" freq="3" friendlyPos="x" id="e1det_165174636#0_0" lane="165174636#0_0" pos="203.20000000000002"/>
    <e1Detector file="e1output.xml" freq="3" friendlyPos="x" id="e1det_-128624211#3_0" lane="-128624211#3_0" pos="117.15"/>
    <e1Detector file="e1output.xml" freq="3" friendlyPos="x" id="e1det_-136597124_0" lane="-136597124_0" pos="149.52"/>
    <e1Detector file="e1output.xml" freq="3" friendlyPos="x" id="e1det_128624211#2_0" lane="128624211#2_0" pos="108.33000000000001"/>
    <e1Detector file="e1output.xml" freq="3" friendlyPos="x" id="e1det_-128883552#2_0" lane="-128883552#2_0" pos="8.65"/>
    <e1Detector file="e1output.xml" freq="3" friendlyPos="x" id="e1det_-699829401_0" lane="-699829401_0" pos="185.05"/>
    <e1Detector file="e1output.xml" freq="3" friendlyPos="x" id="e1det_128620790#5_0" lane="128620790#5_0" pos="83.71000000000001"/>
    <e1Detector file="e1output.xml" freq="3" friendlyPos="x" id="e1det_182047059#3_0" lane="182047059#3_0" pos="386.58"/>
    <e1Detector file="e1output.xml" freq="3" friendlyPos="x" id="e1det_-136512012#1_0" lane="-136512012#1_0" pos="26.669999999999998"/>
    <e1Detector file="e1output.xml" freq="3" friendlyPos="x" id="e1det_136512015#0_0" lane="136512015#0_0" pos="79.2"/>
    <e1Detector file="e1output.xml" freq="3" friendlyPos="x" id="e1det_191050695#5_0" lane="191050695#5_0" pos="149.25"/>
    <e1Detector file="e1output.xml" freq="3" friendlyPos="x" id="e1det_-136512012#4_0" lane="-136512012#4_0" pos="82.0"/>
    <e1Detector file="e1output.xml" freq="3" friendlyPos="x" id="e1det_136511986#7_0" lane="136511986#7_0" pos="82.97"/>
    <e1Detector file="e1output.xml" freq="3" friendlyPos="x" id="e1det_136511990#3_0" lane="136511990#3_0" pos="64.51"/>
    <e1Detector file="e1output.xml" freq="3" friendlyPos="x" id="e1det_136512012#2_0" lane="136512012#2_0" pos="149.02"/>
    <e1Detector file="e1output.xml" freq="3" friendlyPos="x" id="e1det_-136512207#0_0" lane="-136512207#0_0" pos="2.46"/>
    <e1Detector file="e1output.xml" freq="3" friendlyPos="x" id="e1det_-191049869#0_0" lane="-191049869#0_0" pos="6.800000000000001"/>
    <e1Detector file="e1output.xml" freq="3" friendlyPos="x" id="e1det_194922783#1_0" lane="194922783#1_0" pos="74.81"/>
    <e1Detector file="e1output.xml" freq="3" friendlyPos="x" id="e1det_236198639#6_0" lane="236198639#6_0" pos="0.1"/>
    <e1Detector file="e1output.xml" freq="3" friendlyPos="x" id="e1det_-136597131_0" lane="-136597131_0" pos="413.64"/>
    <e1Detector file="e1output.xml" freq="3" friendlyPos="x" id="e1det_-663819976#3_0" lane="-663819976#3_0" pos="495.84999999999997"/>
    <e1Detector file="e1output.xml" freq="3" friendlyPos="x" id="e1det_121988929#5_0" lane="121988929#5_0" pos="119.9"/>
    <e1Detector file="e1output.xml" freq="3" friendlyPos="x" id="e1det_663819976#2_0" lane="663819976#2_0" pos="204.09"/>
    <e1Detector file="e1output.xml" freq="3" friendlyPos="x" id="e1det_-138684850_0" lane="-138684850_0" pos="0.1"/>
    <e1Detector file="e1output.xml" freq="3" friendlyPos="x" id="e1det_138684850_0" lane="138684850_0" pos="0.1"/>
    <e1Detector file="e1output.xml" freq="3" friendlyPos="x" id="e1det_146452466_0" lane="146452466_0" pos="0.1"/>
    <e1Detector file="e1output.xml" freq="3" friendlyPos="x" id="e1det_146452468_0" lane="146452468_0" pos="87.44000000000001"/>
    <e1Detector file="e1output.xml" freq="3" friendlyPos="x" id="e1det_146452468_1" lane="146452468_1" pos="87.44000000000001"/>
    <e1Detector file="e1output.xml" freq="3" friendlyPos="x" id="e1det_237011436_0" lane="237011436_0" pos="55.68"/>
    <e1Detector file="e1output.xml" freq="3" friendlyPos="x" id="e1det_237011436_1" lane="237011436_1" pos="55.68"/>
    <e1Detector file="e1output.xml" freq="3" friendlyPos="x" id="e1det_237011440#0_0" lane="237011440#0_0" pos="56.73"/>
    <e1Detector file="e1output.xml" freq="3" friendlyPos="x" id="e1det_83800739#1_0" lane="83800739#1_0" pos="56.41"/>
    <e1Detector file="e1output.xml" freq="3" friendlyPos="x" id="e1det_-138693091#0_0" lane="-138693091#0_0" pos="0.1"/>
    <e1Detector file="e1output.xml" freq="3" friendlyPos="x" id="e1det_-138693091#1_0" lane="-138693091#1_0" pos="579.0799999999999"/>
    <e1Detector file="e1output.xml" freq="3" friendlyPos="x" id="e1det_-174646986_0" lane="-174646986_0" pos="0.1"/>
    <e1Detector file="e1output.xml" freq="3" friendlyPos="x" id="e1det_-251334042_0" lane="-251334042_0" pos="0.1"/>
    <e1Detector file="e1output.xml" freq="3" friendlyPos="x" id="e1det_127635192#1_0" lane="127635192#1_0" pos="0.1"/>
    <e1Detector file="e1output.xml" freq="3" friendlyPos="x" id="e1det_127635192#1_1" lane="127635192#1_1" pos="0.1"/>
    <e1Detector file="e1output.xml" freq="3" friendlyPos="x" id="e1det_127635205_0" lane="127635205_0" pos="47.19"/>
    <e1Detector file="e1output.xml" freq="3" friendlyPos="x" id="e1det_127635208#1_0" lane="127635208#1_0" pos="603.9"/>
    <e1Detector file="e1output.xml" freq="3" friendlyPos="x" id="e1det_127635208#1_1" lane="127635208#1_1" pos="603.9"/>
    <e1Detector file="e1output.xml" freq="3" friendlyPos="x" id="e1det_138693089_0" lane="138693089_0" pos="38.309999999999995"/>
    <e1Detector file="e1output.xml" freq="3" friendlyPos="x" id="e1det_138693091#0_0" lane="138693091#0_0" pos="0.1"/>
    <e1Detector file="e1output.xml" freq="3" friendlyPos="x" id="e1det_138694664_0" lane="138694664_0" pos="218.95000000000002"/>
    <e1Detector file="e1output.xml" freq="3" friendlyPos="x" id="e1det_174646986_0" lane="174646986_0" pos="0.1"/>
    <e1Detector file="e1output.xml" freq="3" friendlyPos="x" id="e1det_251334042_0" lane="251334042_0" pos="0.1"/>
    <e1Detector file="e1output.xml" freq="3" friendlyPos="x" id="e1det_833742955_0" lane="833742955_0" pos="684.02"/>
    <e1Detector file="e1output.xml" freq="3" friendlyPos="x" id="e1det_-139542981_0" lane="-139542981_0" pos="0.1"/>
    <e1Detector file="e1output.xml" freq="3" friendlyPos="x" id="e1det_-139542982_0" lane="-139542982_0" pos="213.43"/>
    <e1Detector file="e1output.xml" freq="3" friendlyPos="x" id="e1det_-50633435_0" lane="-50633435_0" pos="0.1"/>
    <e1Detector file="e1output.xml" freq="3" friendlyPos="x" id="e1det_114077390_0" lane="114077390_0" pos="210.78"/>
    <e1Detector file="e1output.xml" freq="3" friendlyPos="x" id="e1det_127635194#1_0" lane="127635194#1_0" pos="193.08"/>
    <e1Detector file="e1output.xml" freq="3" friendlyPos="x" id="e1det_127635194#1_1" lane="127635194#1_1" pos="193.08"/>
    <e1Detector file="e1output.xml" freq="3" friendlyPos="x" id="e1det_139542981_0" lane="139542981_0" pos="0.1"/>
    <e1Detector file="e1output.xml" freq="3" friendlyPos="x" id="e1det_174646963#1_0" lane="174646963#1_0" pos="226.89000000000001"/>
    <e1Detector file="e1output.xml" freq="3" friendlyPos="x" id="e1det_174646963#1_1" lane="174646963#1_1" pos="226.89000000000001"/>
    <e1Detector file="e1output.xml" freq="3" friendlyPos="x" id="e1det_50633435_0" lane="50633435_0" pos="0.1"/>
    <e1Detector file="e1output.xml" freq="3" friendlyPos="x" id="e1det_-144929523#3_0" lane="-144929523#3_0" pos="105.33000000000001"/>
    <e1Detector file="e1output.xml" freq="3" friendlyPos="x" id="e1det_-628048130#1_0" lane="-628048130#1_0" pos="135.33"/>
    <e1Detector file="e1output.xml" freq="3" friendlyPos="x" id="e1det_121511486#6_0" lane="121511486#6_0" pos="20.799999999999997"/>
    <e1Detector file="e1output.xml" freq="3" friendlyPos="x" id="e1det_138690698#19_0" lane="138690698#19_0" pos="72.99000000000001"/>
    <e1Detector file="e1output.xml" freq="3" friendlyPos="x" id="e1det_142101048#5_0" lane="142101048#5_0" pos="190.65"/>
    <e1Detector file="e1output.xml" freq="3" friendlyPos="x" id="e1det_142101048#5_1" lane="142101048#5_1" pos="190.65"/>
    <e1Detector file="e1output.xml" freq="3" friendlyPos="x" id="e1det_in5_0" lane="in5_0" pos="395.96999999999997"/>
    <e1Detector file="e1output.xml" freq="3" friendlyPos="x" id="e1det_in5_1" lane="in5_1" pos="395.96999999999997"/>
    <e1Detector file="e1output.xml" freq="3" friendlyPos="x" id="e1det_-144929523#4_0" lane="-144929523#4_0" pos="254.32"/>
    <e1Detector file="e1output.xml" freq="3" friendlyPos="x" id="e1det_144929523#3_0" lane="144929523#3_0" pos="105.85000000000001"/>
    <e1Detector file="e1output.xml" freq="3" friendlyPos="x" id="e1det_409380281_0" lane="409380281_0" pos="532.99"/>
    <e1Detector file="e1output.xml" freq="3" friendlyPos="x" id="e1det_-155236367#0_0" lane="-155236367#0_0" pos="7.36"/>
    <e1Detector file="e1output.xml" freq="3" friendlyPos="x" id="e1det_128620775#1_0" lane="128620775#1_0" pos="518.87"/>
    <e1Detector file="e1output.xml" freq="3" friendlyPos="x" id="e1det_173346288_0" lane="173346288_0" pos="393.66999999999996"/>
    <e1Detector file="e1output.xml" freq="3" friendlyPos="x" id="e1det_182047057#0_0" lane="182047057#0_0" pos="993.11"/>
    <e1Detector file="e1output.xml" freq="3" friendlyPos="x" id="e1det_-155236367#4_0" lane="-155236367#4_0" pos="44.24"/>
    <e1Detector file="e1output.xml" freq="3" friendlyPos="x" id="e1det_155236367#3_0" lane="155236367#3_0" pos="9.38"/>
    <e1Detector file="e1output.xml" freq="3" friendlyPos="x" id="e1det_165628814#1_0" lane="165628814#1_0" pos="393.27"/>
    <e1Detector file="e1output.xml" freq="3" friendlyPos="x" id="e1det_-156469312#0_0" lane="-156469312#0_0" pos="0.1"/>
    <e1Detector file="e1output.xml" freq="3" friendlyPos="x" id="e1det_-156469312#1_0" lane="-156469312#1_0" pos="0.1"/>
    <e1Detector file="e1output.xml" freq="3" friendlyPos="x" id="e1det_-217106658#0_0" lane="-217106658#0_0" pos="0.1"/>
    <e1Detector file="e1output.xml" freq="3" friendlyPos="x" id="e1det_-217106658#1_0" lane="-217106658#1_0" pos="61.83"/>
    <e1Detector file="e1output.xml" freq="3" friendlyPos="x" id="e1det_156469312#0_0" lane="156469312#0_0" pos="0.1"/>
    <e1Detector file="e1output.xml" freq="3" friendlyPos="x" id="e1det_156469312#1_0" lane="156469312#1_0" pos="0.1"/>
    <e1Detector file="e1output.xml" freq="3" friendlyPos="x" id="e1det_156469315#0_0" lane="156469315#0_0" pos="385.94"/>
    <e1Detector file="e1output.xml" freq="3" friendlyPos="x" id="e1det_156469353#1_0" lane="156469353#1_0" pos="245.22"/>
    <e1Detector file="e1output.xml" freq="3" friendlyPos="x" id="e1det_162546311_0" lane="162546311_0" pos="614.38"/>
    <e1Detector file="e1output.xml" freq="3" friendlyPos="x" id="e1det_162546316#5_0" lane="162546316#5_0" pos="59.71"/>
    <e1Detector file="e1output.xml" freq="3" friendlyPos="x" id="e1det_217106658#0_0" lane="217106658#0_0" pos="0.1"/>
    <e1Detector file="e1output.xml" freq="3" friendlyPos="x" id="e1det_939163956_0" lane="939163956_0" pos="79.28"/>
    <e1Detector file="e1output.xml" freq="3" friendlyPos="x" id="e1det_-159524563#1_0" lane="-159524563#1_0" pos="3.87"/>
    <e1Detector file="e1output.xml" freq="3" friendlyPos="x" id="e1det_159524563#0_0" lane="159524563#0_0" pos="197.76000000000002"/>
    <e1Detector file="e1output.xml" freq="3" friendlyPos="x" id="e1det_159524588#1_0" lane="159524588#1_0" pos="213.9"/>
    <e1Detector file="e1output.xml" freq="3" friendlyPos="x" id="e1det_-159524586#1_0" lane="-159524586#1_0" pos="332.34"/>
    <e1Detector file="e1output.xml" freq="3" friendlyPos="x" id="e1det_159524559_0" lane="159524559_0" pos="52.28"/>
    <e1Detector file="e1output.xml" freq="3" friendlyPos="x" id="e1det_181977924#3_0" lane="181977924#3_0" pos="0.1"/>
    <e1Detector file="e1output.xml" freq="3" friendlyPos="x" id="e1det_193107920#2_0" lane="193107920#2_0" pos="9.35"/>
    <e1Detector file="e1output.xml" freq="3" friendlyPos="x" id="e1det_193107920#2_1" lane="193107920#2_1" pos="9.35"/>
    <e1Detector file="e1output.xml" freq="3" friendlyPos="x" id="e1det_-159694559#0_0" lane="-159694559#0_0" pos="301.54999999999995"/>
    <e1Detector file="e1output.xml" freq="3" friendlyPos="x" id="e1det_152429645#2_0" lane="152429645#2_0" pos="181.36"/>
    <e1Detector file="e1output.xml" freq="3" friendlyPos="x" id="e1det_152429648_0" lane="152429648_0" pos="1.8599999999999999"/>
    <e1Detector file="e1output.xml" freq="3" friendlyPos="x" id="e1det_161466915#3_0" lane="161466915#3_0" pos="40.1"/>
    <e1Detector file="e1output.xml" freq="3" friendlyPos="x" id="e1det_-161289126#0_0" lane="-161289126#0_0" pos="8.0"/>
    <e1Detector file="e1output.xml" freq="3" friendlyPos="x" id="e1det_-161289132#2_0" lane="-161289132#2_0" pos="119.73"/>
    <e1Detector file="e1output.xml" freq="3" friendlyPos="x" id="e1det_121510231#5_0" lane="121510231#5_0" pos="8.6"/>
    <e1Detector file="e1output.xml" freq="3" friendlyPos="x" id="e1det_121510283#9_0" lane="121510283#9_0" pos="144.19"/>
    <e1Detector file="e1output.xml" freq="3" friendlyPos="x" id="e1det_in12_0" lane="in12_0" pos="292.66999999999996"/>
    <e1Detector file="e1output.xml" freq="3" friendlyPos="x" id="e1det_in14_0" lane="in14_0" pos="294.54999999999995"/>
    <e1Detector file="e1output.xml" freq="3" friendlyPos="x" id="e1det_-161289126#1_0" lane="-161289126#1_0" pos="26.299999999999997"/>
    <e1Detector file="e1output.xml" freq="3" friendlyPos="x" id="e1det_121510231#4_0" lane="121510231#4_0" pos="294.95"/>
    <e1Detector file="e1output.xml" freq="3" friendlyPos="x" id="e1det_161289126#0_0" lane="161289126#0_0" pos="8.0"/>
    <e1Detector file="e1output.xml" freq="3" friendlyPos="x" id="e1det_-161296945#1_0" lane="-161296945#1_0" pos="260.65999999999997"/>
    <e1Detector file="e1output.xml" freq="3" friendlyPos="x" id="e1det_145291213#19_0" lane="145291213#19_0" pos="203.34"/>
    <e1Detector file="e1output.xml" freq="3" friendlyPos="x" id="e1det_161296912#7_0" lane="161296912#7_0" pos="263.34999999999997"/>
    <e1Detector file="e1output.xml" freq="3" friendlyPos="x" id="e1det_161296912#8_0" lane="161296912#8_0" pos="0.1"/>