<?xml version="1.0" encoding="UTF-8"?>

<!-- generated on 2021-11-02 14:41:30 by Eclipse SUMO duarouter Version 1.10.0
<configuration xmlns:xsi="http://www.w3.org/2001/XMLSchema-instance" xsi:noNamespaceSchemaLocation="http://sumo.dlr.de/xsd/duarouterConfiguration.xsd">

    <input>
        <net-file value="osm.net.xml"/>
        <route-files value="osm.bicycle.trips.xml"/>
    </input>

    <output>
        <output-file value="osm.bicycle.trips.xml.tmp"/>
        <write-trips value="true"/>
    </output>

    <time>
        <begin value="0"/>
        <end value="3600"/>
    </time>

    <report>
        <no-warnings value="true"/>
        <ignore-errors value="true"/>
        <no-step-log value="true"/>
    </report>

</configuration>
-->

<routes xmlns:xsi="http://www.w3.org/2001/XMLSchema-instance" xsi:noNamespaceSchemaLocation="http://sumo.dlr.de/xsd/routes_file.xsd">
    <vType id="bike_bicycle" vClass="bicycle"/>
    <trip id="bike0" type="bike_bicycle" depart="0.00" departLane="best" from="226633386" to="-122348735#2"/>
    <trip id="bike1" type="bike_bicycle" depart="0.37" departLane="best" from="-628032097" to="-532742889"/>
    <trip id="bike2" type="bike_bicycle" depart="0.74" departLane="best" from="365853168" to="240825522#0"/>
    <trip id="bike3" type="bike_bicycle" depart="1.12" departLane="best" from="628052938" to="-226667028#0"/>
    <trip id="bike4" type="bike_bicycle" depart="1.49" departLane="best" from="121904052#1" to="-128753736#0"/>
    <trip id="bike5" type="bike_bicycle" depart="1.86" departLane="best" from="-524200065#1" to="161289848#0"/>
    <trip id="bike6" type="bike_bicycle" depart="2.23" departLane="best" from="-127702571#1" to="-498065515#4"/>
    <trip id="bike7" type="bike_bicycle" depart="2.61" departLane="best" from="227135623#1" to="163057028#4"/>
    <trip id="bike8" type="bike_bicycle" depart="2.98" departLane="best" from="-527700673#0" to="173491957#0"/>
    <trip id="bike9" type="bike_bicycle" depart="3.35" departLane="best" from="499433170#1" to="-106622975#6"/>
    <trip id="bike10" type="bike_bicycle" depart="3.72" departLane="best" from="498283726#2" to="264247410"/>
    <trip id="bike11" type="bike_bicycle" depart="4.10" departLane="best" from="-81140535#0" to="-390220415#0"/>
    <trip id="bike12" type="bike_bicycle" depart="4.47" departLane="best" from="83687716#1" to="-80320173#1"/>
    <trip id="bike13" type="bike_bicycle" depart="4.84" departLane="best" from="-22771867#1" to="-23892248#3"/>
    <trip id="bike14" type="bike_bicycle" depart="5.21" departLane="best" from="545585511#0" to="175210696#3"/>
    <trip id="bike15" type="bike_bicycle" depart="5.59" departLane="best" from="499427389#1" to="33455720#2"/>
    <trip id="bike16" type="bike_bicycle" depart="5.96" departLane="best" from="161466905#9" to="852490410#1"/>
    <trip id="bike17" type="bike_bicycle" depart="6.33" departLane="best" from="106620126#2" to="163923659"/>
    <trip id="bike18" type="bike_bicycle" depart="6.70" departLane="best" from="543824360#4" to="189799795"/>
    <trip id="bike19" type="bike_bicycle" depart="7.08" departLane="best" from="578293942#3" to="169486008#0"/>
    <trip id="bike20" type="bike_bicycle" depart="7.45" departLane="best" from="27265187#2" to="-161463743#0"/>
    <trip id="bike21" type="bike_bicycle" depart="7.82" departLane="best" from="-543824380#0" to="-657913835"/>
    <trip id="bike22" type="bike_bicycle" depart="8.19" departLane="best" from="-207287102#5" to="-544287667"/>
    <trip id="bike23" type="bike_bicycle" depart="8.57" departLane="best" from="-240825504#1" to="-628042959#0"/>
    <trip id="bike24" type="bike_bicycle" depart="8.94" departLane="best" from="220917827#4" to="-860687633#2"/>
    <trip id="bike26" type="bike_bicycle" depart="9.68" departLane="best" from="-609321890#1" to="757478031"/>
    <trip id="bike27" type="bike_bicycle" depart="10.06" departLane="best" from="227131929#3" to="177353867#5"/>
    <trip id="bike28" type="bike_bicycle" depart="10.43" departLane="best" from="-42399185#1" to="33432105#0"/>
    <trip id="bike29" type="bike_bicycle" depart="10.80" departLane="best" from="-412745925#1" to="106620137#2"/>
    <trip id="bike30" type="bike_bicycle" depart="11.17" departLane="best" from="914905956#0" to="226666840"/>
    <trip id="bike31" type="bike_bicycle" depart="11.55" departLane="best" from="165174635#0" to="24691220#5"/>
    <trip id="bike32" type="bike_bicycle" depart="11.92" departLane="best" from="544569993#3" to="42655136#1"/>
    <trip id="bike33" type="bike_bicycle" depart="12.29" departLane="best" from="-543827023#1" to="-136512207#0"/>
    <trip id="bike34" type="bike_bicycle" depart="12.66" departLane="best" from="-742057975#0" to="-621715531"/>
    <trip id="bike35" type="bike_bicycle" depart="13.04" departLane="best" from="-513262258#2" to="761099459#1"/>
    <trip id="bike37" type="bike_bicycle" depart="13.78" departLane="best" from="22799951#0" to="120426546#1"/>
    <trip id="bike38" type="bike_bicycle" depart="14.15" departLane="best" from="682588659#2" to="136879969#0"/>
    <trip id="bike39" type="bike_bicycle" depart="14.53" departLane="best" from="-60110822#5" to="-545600012"/>
    <trip id="bike40" type="bike_bicycle" depart="14.90" departLane="best" from="166490608#2" to="-598311400#0"/>
    <trip id="bike41" type="bike_bicycle" depart="15.27" departLane="best" from="171981508#5" to="638620286"/>
    <trip id="bike42" type="bike_bicycle" depart="15.64" departLane="best" from="121399177#1-AddedOnRampEdge" to="-524200081#0"/>
    <trip id="bike43" type="bike_bicycle" depart="16.02" departLane="best" from="93467823#1" to="161296916#18"/>
    <trip id="bike44" type="bike_bicycle" depart="16.39" departLane="best" from="-226936537" to="-161463774#2"/>
    <trip id="bike45" type="bike_bicycle" depart="16.76" departLane="best" from="479448966#1" to="121904052#3"/>
    <trip id="bike46" type="bike_bicycle" depart="17.13" departLane="best" from="-170476553#0" to="106622975#7"/>
    <trip id="bike47" type="bike_bicycle" depart="17.51" departLane="best" from="93467807#19" to="161463732#5"/>
    <trip id="bike48" type="bike_bicycle" depart="17.88" departLane="best" from="847134633#1" to="578293937#3"/>
    <trip id="bike49" type="bike_bicycle" depart="18.25" departLane="best" from="-119980759#1" to="321833271#1"/>
    <trip id="bike50" type="bike_bicycle" depart="18.62" departLane="best" from="244249229#10" to="161466910#2"/>
    <trip id="bike51" type="bike_bicycle" depart="19.00" departLane="best" from="-609319221#2" to="226669473"/>
    <trip id="bike52" type="bike_bicycle" depart="19.37" departLane="best" from="-255742452#2" to="127702588#0"/>
    <trip id="bike53" type="bike_bicycle" depart="19.74" departLane="best" from="136512024#0" to="81093130#1"/>
    <trip id="bike54" type="bike_bicycle" depart="20.11" departLane="best" from="609319221#0" to="-60110711#0"/>
    <trip id="bike55" type="bike_bicycle" depart="20.49" departLane="best" from="159791637#2" to="-42943243#3"/>
    <trip id="bike57" type="bike_bicycle" depart="21.23" departLane="best" from="-660682022#5" to="226631638#0"/>
    <trip id="bike59" type="bike_bicycle" depart="21.98" departLane="best" from="42364665#13" to="162546312#4"/>
    <trip id="bike60" type="bike_bicycle" depart="22.35" departLane="best" from="42943244#7" to="161463744#15"/>
    <trip id="bike61" type="bike_bicycle" depart="22.72" departLane="best" from="-103562828#1" to="-757867531"/>
    <trip id="bike62" type="bike_bicycle" depart="23.09" departLane="best" from="-121988921" to="742183489#0"/>
    <trip id="bike63" type="bike_bicycle" depart="23.47" departLane="best" from="627965704#1" to="543824369#7"/>
    <trip id="bike64" type="bike_bicycle" depart="23.84" departLane="best" from="-686997413" to="-167352011"/>
    <trip id="bike65" type="bike_bicycle" depart="24.21" departLane="best" from="627111140" to="80318965#1"/>
    <trip id="bike66" type="bike_bicycle" depart="24.58" departLane="best" from="-226628307#2" to="152587334#3"/>
    <trip id="bike67" type="bike_bicycle" depart="24.96" departLane="best" from="-175187109#1" to="42360291#0"/>
    <trip id="bike69" type="bike_bicycle" depart="25.70" departLane="best" from="145291215#2" to="163825162#7"/>
    <trip id="bike70" type="bike_bicycle" depart="26.07" departLane="best" from="-609201046#0" to="60110697#1"/>
    <trip id="bike71" type="bike_bicycle" depart="26.45" departLane="best" from="121982779#1" to="-513262262#3"/>
    <trip id="bike72" type="bike_bicycle" depart="26.82" departLane="best" from="162546314" to="33455720#5"/>
    <trip id="bike73" type="bike_bicycle" depart="27.19" departLane="best" from="-498283726#0" to="-715784070#0"/>
    <trip id="bike74" type="bike_bicycle" depart="27.56" departLane="best" from="93467805#3" to="227135622#1"/>
    <trip id="bike75" type="bike_bicycle" depart="27.94" departLane="best" from="128620783#0" to="161355931#3"/>
    <trip id="bike76" type="bike_bicycle" depart="28.31" departLane="best" from="-27265187#4" to="-543824364#3"/>
    <trip id="bike77" type="bike_bicycle" depart="28.68" departLane="best" from="-80343075#2" to="173491951"/>
    <trip id="bike79" type="bike_bicycle" depart="29.43" departLane="best" from="-182037292#0" to="217106660"/>
    <trip id="bike80" type="bike_bicycle" depart="29.80" departLane="best" from="-543827022#1" to="658253365#4"/>
    <trip id="bike81" type="bike_bicycle" depart="30.17" departLane="best" from="572267663#4" to="-182013177"/>
    <trip id="bike82" type="bike_bicycle" depart="30.54" departLane="best" from="-544569998#3" to="239167099#4"/>
    <trip id="bike83" type="bike_bicycle" depart="30.92" departLane="best" from="-518469005#0" to="-318612595"/>
    <trip id="bike84" type="bike_bicycle" depart="31.29" departLane="best" from="749229817" to="167648259#4"/>
    <trip id="bike86" type="bike_bicycle" depart="32.03" departLane="best" from="499427389#6" to="-478184840#0"/>
    <trip id="bike87" type="bike_bicycle" depart="32.41" departLane="best" from="-239167100#0" to="122347706#0"/>
    <trip id="bike88" type="bike_bicycle" depart="32.78" departLane="best" from="121982785#0" to="143599462#0"/>
    <trip id="bike89" type="bike_bicycle" depart="33.15" departLane="best" from="33455609#0" to="240825486#0"/>
    <trip id="bike90" type="bike_bicycle" depart="33.52" departLane="best" from="863690577#4" to="-240367933#3"/>
    <trip id="bike91" type="bike_bicycle" depart="33.90" departLane="best" from="121399235#0" to="-80917088"/>
    <trip id="bike92" type="bike_bicycle" depart="34.27" departLane="best" from="578293942#3" to="-552083648#8"/>
    <trip id="bike94" type="bike_bicycle" depart="35.01" departLane="best" from="121904052#0" to="-628042964#0"/>
    <trip id="bike95" type="bike_bicycle" depart="35.39" departLane="best" from="-55820165#1" to="699829412"/>
    <trip id="bike96" type="bike_bicycle" depart="35.76" departLane="best" from="128690876#5" to="578293940#1"/>
    <trip id="bike97" type="bike_bicycle" depart="36.13" departLane="best" from="163825700#7" to="-164919784#0"/>
    <trip id="bike98" type="bike_bicycle" depart="36.50" departLane="best" from="in12" to="543832869"/>
    <trip id="bike99" type="bike_bicycle" depart="36.88" departLane="best" from="84274081#0" to="727034575#2"/>
    <trip id="bike100" type="bike_bicycle" depart="37.25" departLane="best" from="545585574#1" to="-42354892#0"/>
    <trip id="bike101" type="bike_bicycle" depart="37.62" departLane="best" from="152587332#4" to="-515298453"/>
    <trip id="bike102" type="bike_bicycle" depart="37.99" departLane="best" from="121399195#3" to="-167352166#0"/>
    <trip id="bike103" type="bike_bicycle" depart="38.37" departLane="best" from="106620126#8" to="868296018#2"/>
    <trip id="bike105" type="bike_bicycle" depart="39.11" departLane="best" from="136597124" to="121981776#3"/>
    <trip id="bike106" type="bike_bicycle" depart="39.48" departLane="best" from="83688125#1" to="93467805#5"/>
    <trip id="bike107" type="bike_bicycle" depart="39.86" departLane="best" from="164919787#1" to="305372276"/>
    <trip id="bike108" type="bike_bicycle" depart="40.23" departLane="best" from="-389714441#0" to="-658421574"/>
    <trip id="bike109" type="bike_bicycle" depart="40.60" departLane="best" from="84273684#3" to="170244826#0"/>
    <trip id="bike110" type="bike_bicycle" depart="40.97" departLane="best" from="162970645#4" to="392563337#1"/>
    <trip id="bike111" type="bike_bicycle" depart="41.35" departLane="best" from="-167352005" to="171981489#1"/>
    <trip id="bike112" type="bike_bicycle" depart="41.72" departLane="best" from="159794831#1" to="545600203#3"/>
    <trip id="bike113" type="bike_bicycle" depart="42.09" departLane="best" from="-392563331#3" to="83787825#4"/>
    <trip id="bike114" type="bike_bicycle" depart="42.46" departLane="best" from="-207468439#1" to="-443721150#0"/>
    <trip id="bike115" type="bike_bicycle" depart="42.84" departLane="best" from="174927501#1" to="240825496#0"/>
    <trip id="bike116" type="bike_bicycle" depart="43.21" departLane="best" from="-544520445" to="-272360502#1"/>
    <trip id="bike117" type="bike_bicycle" depart="43.58" departLane="best" from="628052917#1" to="-545587343"/>
    <trip id="bike118" type="bike_bicycle" depart="43.95" departLane="best" from="174927492#0" to="191050695#1"/>
    <trip id="bike119" type="bike_bicycle" depart="44.33" departLane="best" from="121657045#2" to="170628889#1-AddedOnRampEdge"/>
    <trip id="bike120" type="bike_bicycle" depart="44.70" departLane="best" from="161455970#5" to="743595614#1"/>
    <trip id="bike121" type="bike_bicycle" depart="45.07" departLane="best" from="-499432739#3" to="301803994#1"/>
    <trip id="bike123" type="bike_bicycle" depart="45.82" departLane="best" from="240367931#3" to="-666327597#7"/>
    <trip id="bike124" type="bike_bicycle" depart="46.19" departLane="best" from="-743191139#2" to="40724037#1"/>
    <trip id="bike125" type="bike_bicycle" depart="46.56" departLane="best" from="-182857675#0" to="136867415#1"/>
    <trip id="bike126" type="bike_bicycle" depart="46.93" departLane="best" from="935258514" to="93467807#16"/>
    <trip id="bike127" type="bike_bicycle" depart="47.31" departLane="best" from="-182857676#12" to="-513378601#3"/>
    <trip id="bike128" type="bike_bicycle" depart="47.68" departLane="best" from="-609201046#2" to="743595601#3"/>
    <trip id="bike130" type="bike_bicycle" depart="48.42" departLane="best" from="543824389#2" to="27262001#0"/>
    <trip id="bike131" type="bike_bicycle" depart="48.80" departLane="best" from="182042894" to="88777868#2"/>
    <trip id="bike133" type="bike_bicycle" depart="49.54" departLane="best" from="513265441#5" to="-663833139#0"/>
    <trip id="bike134" type="bike_bicycle" depart="49.91" departLane="best" from="237011435#1" to="761099417"/>
    <trip id="bike135" type="bike_bicycle" depart="50.29" departLane="best" from="-32954671#1" to="-256757261"/>
    <trip id="bike136" type="bike_bicycle" depart="50.66" departLane="best" from="-24691208#0" to="164601679#0"/>
    <trip id="bike137" type="bike_bicycle" depart="51.03" departLane="best" from="302985882#0" to="-499427589#3"/>
    <trip id="bike138" type="bike_bicycle" depart="51.40" departLane="best" from="154526745#0" to="658253365#3"/>
    <trip id="bike139" type="bike_bicycle" depart="51.78" departLane="best" from="545585486#11" to="-227668234#1"/>
    <trip id="bike140" type="bike_bicycle" depart="52.15" departLane="best" from="121982785#0" to="-628042954#0"/>
    <trip id="bike141" type="bike_bicycle" depart="52.52" departLane="best" from="-106620123#3" to="42411940#0"/>
    <trip id="bike142" type="bike_bicycle" depart="52.89" departLane="best" from="226621262" to="-598311394"/>
    <trip id="bike144" type="bike_bicycle" depart="53.64" departLane="best" from="122020348#6" to="-119617633"/>
    <trip id="bike145" type="bike_bicycle" depart="54.01" departLane="best" from="-187924798#2" to="628027957#0"/>
    <trip id="bike147" type="bike_bicycle" depart="54.76" departLane="best" from="543827024#2" to="170628828#0"/>
    <trip id="bike148" type="bike_bicycle" depart="55.13" departLane="best" from="-365853166#0" to="-29812789#0"/>
    <trip id="bike149" type="bike_bicycle" depart="55.50" departLane="best" from="-689583386#3" to="657913826#0"/>
    <trip id="bike150" type="bike_bicycle" depart="55.87" departLane="best" from="4822345#15" to="578293937#0"/>
    <trip id="bike151" type="bike_bicycle" depart="56.25" departLane="best" from="657913826#10" to="-50633438#2"/>
    <trip id="bike152" type="bike_bicycle" depart="56.62" departLane="best" from="-55820127#5" to="-240825537"/>
    <trip id="bike153" type="bike_bicycle" depart="56.99" departLane="best" from="430898065#8" to="628032085#0"/>
    <trip id="bike154" type="bike_bicycle" depart="57.36" departLane="best" from="121399410#4" to="191050698#1"/>
    <trip id="bike155" type="bike_bicycle" depart="57.74" departLane="best" from="-389714440#1" to="743191143#0"/>
    <trip id="bike156" type="bike_bicycle" depart="58.11" departLane="best" from="594874238#2" to="853328357"/>
    <trip id="bike157" type="bike_bicycle" depart="58.48" departLane="best" from="499473601#0" to="628027939#1"/>
    <trip id="bike158" type="bike_bicycle" depart="58.85" departLane="best" from="-122348729#0" to="365806228#1"/>
    <trip id="bike159" type="bike_bicycle" depart="59.23" departLane="best" from="-79697524#1" to="743191151"/>
    <trip id="bike160" type="bike_bicycle" depart="59.60" departLane="best" from="498064388#0" to="594874227#3"/>
    <trip id="bike161" type="bike_bicycle" depart="59.97" departLane="best" from="499473601#0" to="-609319221#1"/>
    <trip id="bike163" type="bike_bicycle" depart="60.72" departLane="best" from="60110697#0" to="55885543"/>
    <trip id="bike164" type="bike_bicycle" depart="61.09" departLane="best" from="-528084503#0" to="513262262#0"/>
    <trip id="bike165" type="bike_bicycle" depart="61.46" departLane="best" from="138684426#1-AddedOffRampEdge" to="-686996775#0"/>
    <trip id="bike166" type="bike_bicycle" depart="61.83" departLane="best" from="481724523#0" to="-543824377#1"/>
    <trip id="bike167" type="bike_bicycle" depart="62.21" departLane="best" from="-122345929#1" to="-4845102"/>
    <trip id="bike168" type="bike_bicycle" depart="62.58" departLane="best" from="-761099449#0" to="594874227#8"/>
    <trip id="bike169" type="bike_bicycle" depart="62.95" departLane="best" from="84100847#1" to="-628042971#0"/>
    <trip id="bike170" type="bike_bicycle" depart="63.32" departLane="best" from="226682704#0" to="121399177#2"/>
    <trip id="bike171" type="bike_bicycle" depart="63.70" departLane="best" from="856821912#5" to="161466905#12"/>
    <trip id="bike172" type="bike_bicycle" depart="64.07" departLane="best" from="761099427#0" to="-256757231"/>
    <trip id="bike173" type="bike_bicycle" depart="64.44" departLane="best" from="84652153#4" to="-42943243#2"/>
    <trip id="bike174" type="bike_bicycle" depart="64.81" departLane="best" from="83800916#1" to="-609201046#5"/>
    <trip id="bike175" type="bike_bicycle" depart="65.19" departLane="best" from="-248644319" to="127702576"/>
    <trip id="bike176" type="bike_bicycle" depart="65.56" departLane="best" from="33432093#2" to="-727034575#1"/>
    <trip id="bike177" type="bike_bicycle" depart="65.93" departLane="best" from="176576462#1" to="161296942#2"/>
    <trip id="bike178" type="bike_bicycle" depart="66.30" departLane="best" from="114109021" to="169486000#1"/>
    <trip id="bike180" type="bike_bicycle" depart="67.05" departLane="best" from="-105276038#2" to="72590878#1"/>
    <trip id="bike181" type="bike_bicycle" depart="67.42" departLane="best" from="162546311" to="314369063#6"/>
    <trip id="bike183" type="bike_bicycle" depart="68.17" departLane="best" from="-858252110#0" to="-177353867#10"/>
    <trip id="bike184" type="bike_bicycle" depart="68.54" departLane="best" from="237011442#0" to="-773552232"/>
    <trip id="bike185" type="bike_bicycle" depart="68.91" departLane="best" from="-731529801#0" to="545585521#0"/>
    <trip id="bike186" type="bike_bicycle" depart="69.28" departLane="best" from="318612594#4" to="-666327600#1"/>
    <trip id="bike187" type="bike_bicycle" depart="69.66" departLane="best" from="-698841852" to="121399443#3-AddedOffRampEdge"/>
    <trip id="bike188" type="bike_bicycle" depart="70.03" departLane="best" from="121399227" to="-658253385#1"/>
    <trip id="bike189" type="bike_bicycle" depart="70.40" departLane="best" from="-29812597#0" to="121778742#1"/>
    <trip id="bike190" type="bike_bicycle" depart="70.77" departLane="best" from="761099442#0" to="240825533#1"/>
    <trip id="bike191" type="bike_bicycle" depart="71.15" departLane="best" from="657914009#1" to="182857677#4"/>
    <trip id="bike193" type="bike_bicycle" depart="71.89" departLane="best" from="-103562827#0" to="-654849795#0"/>
    <trip id="bike194" type="bike_bicycle" depart="72.26" departLane="best" from="122345028" to="170473550"/>
    <trip id="bike195" type="bike_bicycle" depart="72.64" departLane="best" from="22771867#4" to="139882023#3"/>
    <trip id="bike196" type="bike_bicycle" depart="73.01" departLane="best" from="128686639#0" to="-514568108#1"/>
    <trip id="bike197" type="bike_bicycle" depart="73.38" departLane="best" departSpeed="max" from="145291213#0" to="657913836#3"/>
    <trip id="bike198" type="bike_bicycle" depart="73.75" departLane="best" from="-226625049#3" to="161298711#1"/>
    <trip id="bike199" type="bike_bicycle" depart="74.13" departLane="best" from="219330749#3-AddedOnRampEdge" to="-80319240"/>
    <trip id="bike200" type="bike_bicycle" depart="74.50" departLane="best" from="514568108#1" to="404306625#0-AddedOnRampEdge"/>
    <trip id="bike201" type="bike_bicycle" depart="74.87" departLane="best" from="240367934#9" to="-543824364#2"/>
    <trip id="bike202" type="bike_bicycle" depart="75.24" departLane="best" from="-498066062#0" to="-122348397#0"/>
    <trip id="bike203" type="bike_bicycle" depart="75.62" departLane="best" from="-545585790#9" to="145291215#20"/>
    <trip id="bike204" type="bike_bicycle" depart="75.99" departLane="best" from="545585788#2" to="-182857675#6"/>
    <trip id="bike205" type="bike_bicycle" depart="76.36" departLane="best" from="121510276#3" to="208227828"/>
    <trip id="bike206" type="bike_bicycle" depart="76.73" departLane="best" from="-498059709" to="26152147#1"/>
    <trip id="bike207" type="bike_bicycle" depart="77.11" departLane="best" from="158024233#2" to="-545585788#0"/>
    <trip id="bike208" type="bike_bicycle" depart="77.48" departLane="best" from="22799962#0" to="-106622971#0"/>
    <trip id="bike209" type="bike_bicycle" depart="77.85" departLane="best" from="40696643#6" to="42411440#2"/>
    <trip id="bike210" type="bike_bicycle" depart="78.22" departLane="best" from="-24691186#0" to="121988929#4"/>
    <trip id="bike211" type="bike_bicycle" depart="78.60" departLane="best" from="-42412751#0" to="83688586#0"/>
    <trip id="bike212" type="bike_bicycle" depart="78.97" departLane="best" from="161355942#1" to="-164899642#1"/>
    <trip id="bike213" type="bike_bicycle" depart="79.34" departLane="best" from="-55820127#1" to="545585564#1"/>
    <trip id="bike214" type="bike_bicycle" depart="79.71" departLane="best" from="136728279#2" to="498063316"/>
    <trip id="bike215" type="bike_bicycle" depart="80.09" departLane="best" from="174930880#10" to="80319849#6"/>
    <trip id="bike216" type="bike_bicycle" depart="80.46" departLane="best" from="628052935#1" to="182044606#1"/>
    <trip id="bike217" type="bike_bicycle" depart="80.83" departLane="best" from="314369064" to="161289129#5"/>
    <trip id="bike218" type="bike_bicycle" depart="81.20" departLane="best" from="543824367#0" to="163822328#0"/>
    <trip id="bike219" type="bike_bicycle" depart="81.58" departLane="best" from="632940538#1" to="389714441#0"/>
    <trip id="bike220" type="bike_bicycle" depart="81.95" departLane="best" from="145291215#10" to="-595115157#2"/>
    <trip id="bike221" type="bike_bicycle" depart="82.32" departLane="best" from="-545600393" to="226623673#0"/>
    <trip id="bike222" type="bike_bicycle" depart="82.69" departLane="best" from="-193136067" to="-632940536#1"/>
    <trip id="bike223" type="bike_bicycle" depart="83.07" departLane="best" from="-628027938#3" to="-743595601#2"/>
    <trip id="bike224" type="bike_bicycle" depart="83.44" departLane="best" from="162970619#2" to="-33278388#7"/>
    <trip id="bike225" type="bike_bicycle" depart="83.81" departLane="best" from="-544025744#0" to="256750229#0"/>
    <trip id="bike226" type="bike_bicycle" depart="84.18" departLane="best" from="276920603#0" to="-170613311#1"/>
    <trip id="bike228" type="bike_bicycle" depart="84.93" departLane="best" from="121510282#3" to="-499473623"/>
    <trip id="bike229" type="bike_bicycle" depart="85.30" departLane="best" from="121703396#3" to="658253363#0"/>
    <trip id="bike230" type="bike_bicycle" depart="85.67" departLane="best" from="171981489#2" to="256756987#1"/>
    <trip id="bike231" type="bike_bicycle" depart="86.05" departLane="best" from="106620140#6" to="-106622973#3"/>
    <trip id="bike232" type="bike_bicycle" depart="86.42" departLane="best" from="-84112108#0" to="412745931#1"/>
    <trip id="bike233" type="bike_bicycle" depart="86.79" departLane="best" from="546117819" to="80917648#2"/>
    <trip id="bike234" type="bike_bicycle" depart="87.16" departLane="best" from="121657041#3" to="392563334#4"/>
    <trip id="bike235" type="bike_bicycle" depart="87.54" departLane="best" from="163822326#0" to="175210695#1"/>
    <trip id="bike236" type="bike_bicycle" depart="87.91" departLane="best" from="-527700673#1" to="-524200081#2"/>
    <trip id="bike237" type="bike_bicycle" depart="88.28" departLane="best" from="128576354#0" to="-128624211#0"/>
    <trip id="bike238" type="bike_bicycle" depart="88.65" departLane="best" from="-80319849#2" to="240832234#3"/>
    <trip id="bike239" type="bike_bicycle" depart="89.03" departLane="best" from="121399274" to="-422119590#1"/>
    <trip id="bike240" type="bike_bicycle" depart="89.40" departLane="best" from="143599462#3" to="-29812940#0"/>
    <trip id="bike241" type="bike_bicycle" depart="89.77" departLane="best" from="193248265#2" to="-127702591#0"/>
    <trip id="bike242" type="bike_bicycle" depart="90.14" departLane="best" from="120407431#4" to="167162608#1"/>
    <trip id="bike243" type="bike_bicycle" depart="90.52" departLane="best" from="-127702591#2" to="226700297#0"/>
    <trip id="bike244" type="bike_bicycle" depart="90.89" departLane="best" from="-32954781#3" to="138690698#19"/>
    <trip id="bike245" type="bike_bicycle" depart="91.26" departLane="best" from="-164899645#0" to="106620128#1"/>
    <trip id="bike246" type="bike_bicycle" depart="91.63" departLane="best" from="-513262262#2" to="-761099433#1"/>
    <trip id="bike247" type="bike_bicycle" depart="92.01" departLane="best" from="42363103#1" to="106620133#0"/>
    <trip id="bike248" type="bike_bicycle" depart="92.38" departLane="best" from="412745925#1" to="543824370#3"/>
    <trip id="bike250" type="bike_bicycle" depart="93.12" departLane="best" from="-121988919" to="162546312#4"/>
    <trip id="bike251" type="bike_bicycle" depart="93.50" departLane="best" from="in8" to="-83892649#3"/>
    <trip id="bike252" type="bike_bicycle" depart="93.87" departLane="best" from="227139176#0" to="437592500#1"/>
    <trip id="bike253" type="bike_bicycle" depart="94.24" departLane="best" from="227668227#4" to="41656945#1"/>
    <trip id="bike254" type="bike_bicycle" depart="94.61" departLane="best" from="80319849#6" to="-498066063"/>
    <trip id="bike255" type="bike_bicycle" depart="94.99" departLane="best" from="-121991170#1" to="-375904966#3"/>
    <trip id="bike256" type="bike_bicycle" depart="95.36" departLane="best" from="-297715143#12" to="239167101#0"/>
    <trip id="bike257" type="bike_bicycle" depart="95.73" departLane="best" from="167162606" to="-524104535"/>
    <trip id="bike258" type="bike_bicycle" depart="96.10" departLane="best" from="26679374#6-AddedOnRampEdge" to="42399036#0"/>
    <trip id="bike259" type="bike_bicycle" depart="96.48" departLane="best" from="-42364857#1" to="176972573#1"/>
    <trip id="bike260" type="bike_bicycle" depart="96.85" departLane="best" from="392563342#1" to="-256756375#0"/>
    <trip id="bike261" type="bike_bicycle" depart="97.22" departLane="best" from="5169015#5-AddedOffRampEdge" to="83892407#1"/>
    <trip id="bike262" type="bike_bicycle" depart="97.59" departLane="best" from="-248637756#2" to="-122995297#0"/>
    <trip id="bike263" type="bike_bicycle" depart="97.97" departLane="best" from="-723298097" to="240825533#1"/>
    <trip id="bike264" type="bike_bicycle" depart="98.34" departLane="best" from="83688734#3" to="120492000#0"/>
    <trip id="bike265" type="bike_bicycle" depart="98.71" departLane="best" from="29813003#7" to="-188356148#2"/>
    <trip id="bike266" type="bike_bicycle" depart="99.08" departLane="best" from="-240825522#2" to="42412528#5"/>
    <trip id="bike267" type="bike_bicycle" depart="99.46" departLane="best" from="545585790#7" to="175210678#3"/>
    <trip id="bike268" type="bike_bicycle" depart="99.83" departLane="best" from="-275145843" to="863690573#2"/>
    <trip id="bike269" type="bike_bicycle" depart="100.20" departLane="best" from="437731465#1" to="-83800916#1"/>
    <trip id="bike270" type="bike_bicycle" depart="100.57" departLane="best" from="122100017" to="-923127872#0"/>
    <trip id="bike271" type="bike_bicycle" depart="100.95" departLane="best" from="161296911#0" to="-81813447#2"/>