<?xml version="1.0" encoding="UTF-8"?>

<!-- generated on 2021-11-01 17:06:37 by Eclipse SUMO duarouter Version 1.10.0
<configuration xmlns:xsi="http://www.w3.org/2001/XMLSchema-instance" xsi:noNamespaceSchemaLocation="http://sumo.dlr.de/xsd/duarouterConfiguration.xsd">

    <input>
        <net-file value="osm.net.xml"/>
        <route-files value="osm.motorcycle.trips.xml"/>
    </input>

    <output>
        <output-file value="osm.motorcycle.trips.xml.tmp"/>
        <write-trips value="true"/>
    </output>

    <time>
        <begin value="0"/>
        <end value="3600"/>
    </time>

    <report>
        <no-warnings value="true"/>
        <ignore-errors value="true"/>
        <no-step-log value="true"/>
    </report>

</configuration>
-->

<routes xmlns:xsi="http://www.w3.org/2001/XMLSchema-instance" xsi:noNamespaceSchemaLocation="http://sumo.dlr.de/xsd/routes_file.xsd">
    <vType id="moto_motorcycle" vClass="motorcycle"/>
    <trip id="moto0" type="moto_motorcycle" depart="0.00" departLane="best" from="-237011442#0" to="-628042955#3"/>
    <trip id="moto1" type="moto_motorcycle" depart="0.63" departLane="best" from="-188356148#3" to="121991960#4"/>
    <trip id="moto2" type="moto_motorcycle" depart="1.25" departLane="best" from="-248637755#0" to="159783521"/>
    <trip id="moto3" type="moto_motorcycle" depart="1.88" departLane="best" from="390220415#0" to="-389714445#0"/>
    <trip id="moto5" type="moto_motorcycle" depart="3.13" departLane="best" from="543824367#2" to="-658253362#1"/>
    <trip id="moto6" type="moto_motorcycle" depart="3.76" departLane="best" from="-658253365#5" to="657914010"/>
    <trip id="moto7" type="moto_motorcycle" depart="4.38" departLane="best" from="144929514" to="543824362#2"/>
    <trip id="moto8" type="moto_motorcycle" depart="5.01" departLane="best" from="-42415934#6" to="761099443#0"/>
    <trip id="moto9" type="moto_motorcycle" depart="5.63" departLane="best" from="-628042964#0" to="-33457660#2"/>
    <trip id="moto10" type="moto_motorcycle" depart="6.26" departLane="best" from="136512015#2" to="174933445#8"/>
    <trip id="moto11" type="moto_motorcycle" depart="6.89" departLane="best" from="545587243#2" to="545585790#11"/>
    <trip id="moto13" type="moto_motorcycle" depart="8.14" departLane="best" from="-658253365#3" to="-297715143#1"/>
    <trip id="moto14" type="moto_motorcycle" depart="8.76" departLane="best" from="128753742#4" to="191050697#9"/>
    <trip id="moto15" type="moto_motorcycle" depart="9.39" departLane="best" from="544281623#0" to="847134629"/>
    <trip id="moto16" type="moto_motorcycle" depart="10.02" departLane="best" from="119617632#2" to="543824391#1"/>
    <trip id="moto17" type="moto_motorcycle" depart="10.64" departLane="best" from="-658253365#0" to="499473600#0"/>
    <trip id="moto18" type="moto_motorcycle" depart="11.27" departLane="best" from="150522796#0" to="42411413#0"/>
    <trip id="moto19" type="moto_motorcycle" depart="11.89" departLane="best" from="136512015#0" to="318612594#4"/>
    <trip id="moto20" type="moto_motorcycle" depart="12.52" departLane="best" from="-55820166#3" to="-55820127#3"/>
    <trip id="moto21" type="moto_motorcycle" depart="13.15" departLane="best" from="369334398#0" to="121988929#0"/>
    <trip id="moto22" type="moto_motorcycle" depart="13.77" departLane="best" from="26679374#8-AddedOffRampEdge" to="-227668232#3"/>
    <trip id="moto23" type="moto_motorcycle" depart="14.40" departLane="best" from="42353576#7" to="121399177#5"/>
    <trip id="moto24" type="moto_motorcycle" depart="15.02" departLane="best" from="256750642#1" to="139882023#1"/>
    <trip id="moto25" type="moto_motorcycle" depart="15.65" departLane="best" from="545587359" to="-657913838"/>
    <trip id="moto26" type="moto_motorcycle" depart="16.28" departLane="best" from="152587334#2" to="182857674#0"/>
    <trip id="moto27" type="moto_motorcycle" depart="16.90" departLane="best" from="121100435#1" to="545585791#3"/>
    <trip id="moto28" type="moto_motorcycle" depart="17.53" departLane="best" from="389714440#1" to="178363625"/>
    <trip id="moto29" type="moto_motorcycle" depart="18.15" departLane="best" from="886900164#2" to="-931969212#2"/>
    <trip id="moto31" type="moto_motorcycle" depart="19.40" departLane="best" from="-545585511#1" to="-545585632#7"/>
    <trip id="moto32" type="moto_motorcycle" depart="20.03" departLane="best" from="146452466" to="114077389"/>
    <trip id="moto33" type="moto_motorcycle" depart="20.66" departLane="best" from="165174634" to="136512002#0"/>
    <trip id="moto34" type="moto_motorcycle" depart="21.28" departLane="best" from="42454168#1" to="122345930"/>
    <trip id="moto35" type="moto_motorcycle" depart="21.91" departLane="best" from="121988946#0-AddedOnRampEdge" to="114108319#1"/>
    <trip id="moto36" type="moto_motorcycle" depart="22.53" departLane="best" from="-208218219#3" to="208218220#4"/>
    <trip id="moto38" type="moto_motorcycle" depart="23.79" departLane="best" from="-169352441#1" to="178787175"/>
    <trip id="moto40" type="moto_motorcycle" depart="25.04" departLane="best" from="-302986251" to="-628042957#3"/>
    <trip id="moto41" type="moto_motorcycle" depart="25.66" departLane="best" from="44780842#0" to="628042969#0"/>
    <trip id="moto42" type="moto_motorcycle" depart="26.29" departLane="best" from="72590878#1" to="136512015#4"/>
    <trip id="moto43" type="moto_motorcycle" depart="26.92" departLane="best" from="227669820#1" to="220918379#0"/>
    <trip id="moto44" type="moto_motorcycle" depart="27.54" departLane="best" from="-545585486#5" to="-545600203#2"/>
    <trip id="moto45" type="moto_motorcycle" depart="28.17" departLane="best" from="162546316#7-AddedOnRampEdge" to="150608623#1"/>
    <trip id="moto46" type="moto_motorcycle" depart="28.79" departLane="best" from="27081674#1" to="-545587359"/>
    <trip id="moto47" type="moto_motorcycle" depart="29.42" departLane="best" from="119617637#5" to="-366761340#6"/>
    <trip id="moto48" type="moto_motorcycle" depart="30.05" departLane="best" from="121100409#1-AddedOffRampEdge" to="-106622973#3"/>
    <trip id="moto49" type="moto_motorcycle" depart="30.67" departLane="best" from="314369301#0" to="-545599575"/>
    <trip id="moto50" type="moto_motorcycle" depart="31.30" departLane="best" from="33456967#6" to="-32954781#11"/>
    <trip id="moto51" type="moto_motorcycle" depart="31.92" departLane="best" from="-162362370#0" to="-122020348#10"/>
    <trip id="moto52" type="moto_motorcycle" depart="32.55" departLane="best" from="657913845#5" to="543824364#6"/>
    <trip id="moto53" type="moto_motorcycle" depart="33.18" departLane="best" from="174144374" to="174144365"/>
    <trip id="moto54" type="moto_motorcycle" depart="33.80" departLane="best" from="191050695#0" to="481724518#1"/>
    <trip id="moto55" type="moto_motorcycle" depart="34.43" departLane="best" from="121399414" to="121399414-AddedOffRampEdge"/>
    <trip id="moto56" type="moto_motorcycle" depart="35.05" departLane="best" from="237011442#1" to="-628048138"/>
    <trip id="moto57" type="moto_motorcycle" depart="35.68" departLane="best" from="-422119589#0" to="25446417#0"/>
    <trip id="moto58" type="moto_motorcycle" depart="36.31" departLane="best" from="162546312#0" to="42411402#2"/>
    <trip id="moto59" type="moto_motorcycle" depart="36.93" departLane="best" from="27945353#3" to="-228169962#3"/>
    <trip id="moto60" type="moto_motorcycle" depart="37.56" departLane="best" from="239167099#1" to="743595591#7"/>
    <trip id="moto61" type="moto_motorcycle" depart="38.18" departLane="best" from="42353538#2" to="-159694559#1"/>
    <trip id="moto62" type="moto_motorcycle" depart="38.81" departLane="best" from="121510215#1" to="122020348#14"/>
    <trip id="moto64" type="moto_motorcycle" depart="40.06" departLane="best" from="121399170#1-AddedOnRampEdge" to="545585632#1"/>
    <trip id="moto65" type="moto_motorcycle" depart="40.69" departLane="best" from="138694650#5" to="628048130#2"/>
    <trip id="moto66" type="moto_motorcycle" depart="41.31" departLane="best" from="161463775#3" to="161296948#3"/>
    <trip id="moto67" type="moto_motorcycle" depart="41.94" departLane="best" from="-761099442#1" to="868296016#1"/>
    <trip id="moto68" type="moto_motorcycle" depart="42.57" departLane="best" from="739539783" to="-314369063#7"/>
    <trip id="moto69" type="moto_motorcycle" depart="43.19" departLane="best" from="657913844#0" to="545585486#0"/>
    <trip id="moto70" type="moto_motorcycle" depart="43.82" departLane="best" from="121399158#0" to="121399248#2"/>
    <trip id="moto71" type="moto_motorcycle" depart="44.44" departLane="best" from="-853328360" to="-83800912"/>
    <trip id="moto72" type="moto_motorcycle" depart="45.07" departLane="best" from="-83892649#0" to="-83787825#1"/>
    <trip id="moto73" type="moto_motorcycle" depart="45.70" departLane="best" from="144929508#0" to="-666327600#1"/>
    <trip id="moto75" type="moto_motorcycle" depart="46.95" departLane="best" from="-170613306#0" to="136512002#1"/>
    <trip id="moto77" type="moto_motorcycle" depart="48.20" departLane="best" from="174144370#3" to="164601679#1"/>
    <trip id="moto78" type="moto_motorcycle" depart="48.83" departLane="best" from="682588661" to="761099451#0"/>
    <trip id="moto79" type="moto_motorcycle" depart="49.45" departLane="best" from="154526708" to="-533915026"/>
    <trip id="moto80" type="moto_motorcycle" depart="50.08" departLane="best" from="136512007#1" to="165743483#4"/>
    <trip id="moto81" type="moto_motorcycle" depart="50.70" departLane="best" from="155236368#0" to="164895150"/>
    <trip id="moto82" type="moto_motorcycle" depart="51.33" departLane="best" from="42412798#2" to="145656886"/>
    <trip id="moto83" type="moto_motorcycle" depart="51.96" departLane="best" from="-757864518" to="682588662"/>
    <trip id="moto84" type="moto_motorcycle" depart="52.58" departLane="best" from="-42363120" to="227668231#0"/>
    <trip id="moto85" type="moto_motorcycle" depart="53.21" departLane="best" from="156469324" to="499473607#3"/>
    <trip id="moto86" type="moto_motorcycle" depart="53.83" departLane="best" from="-860687633#3" to="256750642#2"/>
    <trip id="moto87" type="moto_motorcycle" depart="54.46" departLane="best" from="121991173#1" to="164435195#1"/>
    <trip id="moto88" type="moto_motorcycle" depart="55.08" departLane="best" from="161463766#3" to="161296942#5"/>
    <trip id="moto89" type="moto_motorcycle" depart="55.71" departLane="best" from="-682588661" to="682588653#3"/>
    <trip id="moto90" type="moto_motorcycle" depart="56.34" departLane="best" from="174787784#4" to="136512009#3"/>
    <trip id="moto91" type="moto_motorcycle" depart="56.96" departLane="best" from="-119617629#5" to="161355953"/>
    <trip id="moto92" type="moto_motorcycle" depart="57.59" departLane="best" from="264247408#9" to="128624210#0"/>
    <trip id="moto94" type="moto_motorcycle" depart="58.84" departLane="best" from="119617637#4" to="120426543#4"/>
    <trip id="moto95" type="moto_motorcycle" depart="59.47" departLane="best" from="217106667" to="-657913828#1"/>
    <trip id="moto96" type="moto_motorcycle" depart="60.09" departLane="best" from="-24459456#3" to="391187049#3"/>
    <trip id="moto97" type="moto_motorcycle" depart="60.72" departLane="best" from="227668227#13" to="121399261"/>
    <trip id="moto98" type="moto_motorcycle" depart="61.34" departLane="best" from="174930880#11" to="174144373#0"/>
    <trip id="moto99" type="moto_motorcycle" depart="61.97" departLane="best" from="170473546" to="761099424"/>
    <trip id="moto100" type="moto_motorcycle" depart="62.60" departLane="best" from="-188356145#0" to="-292624647#4"/>
    <trip id="moto101" type="moto_motorcycle" depart="63.22" departLane="best" from="175210678#3" to="121399180#5"/>
    <trip id="moto102" type="moto_motorcycle" depart="63.85" departLane="best" from="161355955" to="161289850"/>
    <trip id="moto103" type="moto_motorcycle" depart="64.47" departLane="best" from="302985879#0" to="389714441#1"/>
    <trip id="moto104" type="moto_motorcycle" depart="65.10" departLane="best" from="-853328361" to="in6"/>
    <trip id="moto105" type="moto_motorcycle" depart="65.73" departLane="best" from="175210679" to="121399208"/>
    <trip id="moto106" type="moto_motorcycle" depart="66.35" departLane="best" from="-545585486#21" to="-545585486#23"/>
    <trip id="moto107" type="moto_motorcycle" depart="66.98" departLane="best" from="369334398#2" to="237011435#5"/>
    <trip id="moto108" type="moto_motorcycle" depart="67.60" departLane="best" from="144929505#1-AddedOffRampEdge" to="-106617830"/>
    <trip id="moto109" type="moto_motorcycle" depart="68.23" departLane="best" from="227668227#2" to="-866196370"/>
    <trip id="moto110" type="moto_motorcycle" depart="68.86" departLane="best" from="749229814" to="161289850"/>
    <trip id="moto112" type="moto_motorcycle" depart="70.11" departLane="best" from="543824370#5" to="-657913843#1"/>
    <trip id="moto113" type="moto_motorcycle" depart="70.73" departLane="best" from="-42400052#1" to="660682022#5"/>
    <trip id="moto114" type="moto_motorcycle" depart="71.36" departLane="best" from="-743595588" to="-22799951#1"/>
    <trip id="moto115" type="moto_motorcycle" depart="71.99" departLane="best" from="175210669#0" to="-42412528#2"/>
    <trip id="moto116" type="moto_motorcycle" depart="72.61" departLane="best" from="-33457660#4" to="-42415934#6"/>
    <trip id="moto117" type="moto_motorcycle" depart="73.24" departLane="best" from="248637752#0" to="-161460529#1"/>
    <trip id="moto118" type="moto_motorcycle" depart="73.86" departLane="best" from="-466271889#0" to="174144370#11"/>
    <trip id="moto120" type="moto_motorcycle" depart="75.12" departLane="best" from="-55820127#1" to="59452364#0"/>
    <trip id="moto121" type="moto_motorcycle" depart="75.74" departLane="best" from="498063652#0" to="498289229#3"/>
    <trip id="moto122" type="moto_motorcycle" depart="76.37" departLane="best" from="170628836" to="170628828#2"/>
    <trip id="moto123" type="moto_motorcycle" depart="76.99" departLane="best" from="-409380281" to="-42415934#5"/>
    <trip id="moto124" type="moto_motorcycle" depart="77.62" departLane="best" from="818679647#5" to="-55820166#5"/>
    <trip id="moto125" type="moto_motorcycle" depart="78.25" departLane="best" from="121988914" to="165628815#2"/>
    <trip id="moto126" type="moto_motorcycle" depart="78.87" departLane="best" from="-481724518#11" to="121778743#3"/>
    <trip id="moto127" type="moto_motorcycle" depart="79.50" departLane="best" from="191050698#1" to="-365806227"/>
    <trip id="moto128" type="moto_motorcycle" depart="80.12" departLane="best" from="136597131" to="865466544#1"/>
    <trip id="moto129" type="moto_motorcycle" depart="80.75" departLane="best" from="-161357286#2" to="55883934#0"/>
    <trip id="moto130" type="moto_motorcycle" depart="81.38" departLane="best" from="314369063#7" to="657913843#0"/>
    <trip id="moto132" type="moto_motorcycle" depart="82.63" departLane="best" from="-188356149#2" to="865466544#1-AddedOffRampEdge"/>
    <trip id="moto133" type="moto_motorcycle" depart="83.25" departLane="best" from="562177329" to="-854231899#0"/>
    <trip id="moto134" type="moto_motorcycle" depart="83.88" departLane="best" from="60110726#1" to="42412027#0"/>
    <trip id="moto135" type="moto_motorcycle" depart="84.51" departLane="best" from="217989191#1" to="-106620140#1"/>
    <trip id="moto136" type="moto_motorcycle" depart="85.13" departLane="best" from="-391182778#0" to="122020348#7"/>
    <trip id="moto137" type="moto_motorcycle" depart="85.76" departLane="best" from="121988946#1-AddedOffRampEdge" to="165628818#1"/>
    <trip id="moto139" type="moto_motorcycle" depart="87.01" departLane="best" from="-544520431#2" to="-544520433#2"/>
    <trip id="moto140" type="moto_motorcycle" depart="87.64" departLane="best" from="22799950#1" to="-481724518#3"/>
    <trip id="moto141" type="moto_motorcycle" depart="88.26" departLane="best" from="170473547#1" to="191050697#11"/>
    <trip id="moto142" type="moto_motorcycle" depart="88.89" departLane="best" from="80318966#3" to="-84652153#5"/>
    <trip id="moto143" type="moto_motorcycle" depart="89.51" departLane="best" from="182857675#2" to="-513262258#1"/>
    <trip id="moto144" type="moto_motorcycle" depart="90.14" departLane="best" from="657913845#5" to="-498066064#1"/>
    <trip id="moto145" type="moto_motorcycle" depart="90.76" departLane="best" from="30064844#0" to="543831706"/>
    <trip id="moto146" type="moto_motorcycle" depart="91.39" departLane="best" from="33457266#1" to="165628815#8"/>
    <trip id="moto147" type="moto_motorcycle" depart="92.02" departLane="best" from="114109019#1" to="654849137"/>
    <trip id="moto148" type="moto_motorcycle" depart="92.64" departLane="best" from="136702242#2" to="-297715143#6"/>
    <trip id="moto149" type="moto_motorcycle" depart="93.27" departLane="best" from="191050695#3" to="33457266#2"/>
    <trip id="moto150" type="moto_motorcycle" depart="93.89" departLane="best" from="175210669#7" to="251329004"/>
    <trip id="moto151" type="moto_motorcycle" depart="94.52" departLane="best" from="761099443#0" to="-42364857#5"/>
    <trip id="moto152" type="moto_motorcycle" depart="95.15" departLane="best" from="237581600#4" to="630766647"/>
    <trip id="moto153" type="moto_motorcycle" depart="95.77" departLane="best" from="-437592495" to="-55820166#4"/>
    <trip id="moto154" type="moto_motorcycle" depart="96.40" departLane="best" from="171981478-AddedOnRampEdge" to="121399438#2"/>
    <trip id="moto155" type="moto_motorcycle" depart="97.02" departLane="best" from="169098104" to="-498065251"/>
    <trip id="moto156" type="moto_motorcycle" depart="97.65" departLane="best" from="144929524#2" to="-498283727"/>
    <trip id="moto157" type="moto_motorcycle" depart="98.28" departLane="best" from="159783338#1" to="121399333"/>
    <trip id="moto158" type="moto_motorcycle" depart="98.90" departLane="best" from="-163057033#1" to="-545585486#22"/>
    <trip id="moto159" type="moto_motorcycle" depart="99.53" departLane="best" from="176576460#3-AddedOnRampEdge" to="170628854"/>
    <trip id="moto161" type="moto_motorcycle" depart="100.78" departLane="best" from="42353706#0" to="161355930#1"/>
    <trip id="moto162" type="moto_motorcycle" depart="101.41" departLane="best" from="-392552182" to="177353867#10"/>
    <trip id="moto163" type="moto_motorcycle" depart="102.03" departLane="best" from="-757864518" to="239167100#2"/>
    <trip id="moto164" type="moto_motorcycle" depart="102.66" departLane="best" from="-238412940#0" to="-161298699#0"/>
    <trip id="moto165" type="moto_motorcycle" depart="103.28" departLane="best" from="-208218220#1" to="-255784668#0"/>
    <trip id="moto166" type="moto_motorcycle" depart="103.91" departLane="best" from="42411590#0" to="760450874"/>
    <trip id="moto167" type="moto_motorcycle" depart="104.54" departLane="best" from="545585486#15" to="-545585486#22"/>
    <trip id="moto168" type="moto_motorcycle" depart="105.16" departLane="best" from="237011435#3" to="22799950#2"/>
    <trip id="moto169" type="moto_motorcycle" depart="105.79" departLane="best" from="-567248422#0" to="174144377"/>
    <trip id="moto170" type="moto_motorcycle" depart="106.41" departLane="best" from="156346934#2" to="182857676#7"/>
    <trip id="moto171" type="moto_motorcycle" depart="107.04" departLane="best" from="-72701010#2" to="-628042967"/>
    <trip id="moto172" type="moto_motorcycle" depart="107.67" departLane="best" from="170478068#1" to="171981508#3"/>
    <trip id="moto173" type="moto_motorcycle" depart="108.29" departLane="best" from="144929521#1" to="543824368#2"/>
    <trip id="moto174" type="moto_motorcycle" depart="108.92" departLane="best" from="121399424" to="175210671#0"/>
    <trip id="moto175" type="moto_motorcycle" depart="109.54" departLane="best" from="-144929523#3" to="22799950#3"/>
    <trip id="moto176" type="moto_motorcycle" depart="110.17" departLane="best" from="136512001#4" to="513262258#1"/>
    <trip id="moto177" type="moto_motorcycle" depart="110.80" departLane="best" from="156469315#0" to="240367920#0"/>
    <trip id="moto178" type="moto_motorcycle" depart="111.42" departLane="best" from="207287102#6" to="-161466915#3"/>
    <trip id="moto179" type="moto_motorcycle" depart="112.05" departLane="best" from="-369335343#0" to="-628042955#2"/>
    <trip id="moto180" type="moto_motorcycle" depart="112.67" departLane="best" from="121510215#2" to="178363614#2"/>
    <trip id="moto181" type="moto_motorcycle" depart="113.30" departLane="best" from="163057031#0" to="-658253362#2"/>
    <trip id="moto182" type="moto_motorcycle" depart="113.93" departLane="best" from="170628828#0" to="-545587242"/>
    <trip id="moto183" type="moto_motorcycle" depart="114.55" departLane="best" from="-860342590" to="-562177330#0"/>
    <trip id="moto184" type="moto_motorcycle" depart="115.18" departLane="best" from="739539787#0" to="658253369#0"/>
    <trip id="moto185" type="moto_motorcycle" depart="115.80" departLane="best" from="122020348#11" to="761099442#1"/>
    <trip id="moto186" type="moto_motorcycle" depart="116.43" departLane="best" from="136512002#7" to="136511995#3"/>
    <trip id="moto188" type="moto_motorcycle" depart="117.68" departLane="best" from="161466906#1" to="208218219#3"/>
    <trip id="moto189" type="moto_motorcycle" depart="118.31" departLane="best" from="-169352442#0" to="-83995265#0"/>
    <trip id="moto191" type="moto_motorcycle" depart="119.56" departLane="best" from="242787709" to="175210707#1"/>
    <trip id="moto192" type="moto_motorcycle" depart="120.19" departLane="best" from="163057033#0" to="162970648#0"/>
    <trip id="moto193" type="moto_motorcycle" depart="120.81" departLane="best" from="162546312#4" to="217106658#0"/>
    <trip id="moto194" type="moto_motorcycle" depart="121.44" departLane="best" from="27265186#2" to="188356148#3"/>
    <trip id="moto195" type="moto_motorcycle" depart="122.06" departLane="best" from="83689275#1" to="-761099446#0"/>
    <trip id="moto196" type="moto_motorcycle" depart="122.69" departLane="best" from="176576448#1" to="543830600"/>
    <trip id="moto197" type="moto_motorcycle" depart="123.32" departLane="best" from="-106620137#2" to="666327598"/>
    <trip id="moto198" type="moto_motorcycle" depart="123.94" departLane="best" from="227668227#6" to="106620140#2"/>
    <trip id="moto199" type="moto_motorcycle" depart="124.57" departLane="best" from="-545585486#21" to="121399203#2"/>
    <trip id="moto200" type="moto_motorcycle" depart="125.19" departLane="best" from="253164064" to="-78241020#0"/>
    <trip id="moto201" type="moto_motorcycle" depart="125.82" departLane="best" from="155236367#4" to="236198639#8"/>
    <trip id="moto202" type="moto_motorcycle" depart="126.44" departLane="best" from="191049869#0" to="629221657"/>
    <trip id="moto203" type="moto_motorcycle" depart="127.07" departLane="best" from="122020348#3" to="121991960#3"/>
    <trip id="moto204" type="moto_motorcycle" depart="127.70" departLane="best" from="498065249#0" to="-42411722#5"/>
    <trip id="moto205" type="moto_motorcycle" depart="128.32" departLane="best" from="853328366" to="853328365"/>
    <trip id="moto206" type="moto_motorcycle" depart="128.95" departLane="best" from="-182857677#4" to="156469315#3"/>
    <trip id="moto207" type="moto_motorcycle" depart="129.57" departLane="best" from="143749968#3" to="219332912#6"/>
    <trip id="moto208" type="moto_motorcycle" depart="130.20" departLane="best" from="33457266#4" to="-33278312#1"/>
    <trip id="moto209" type="moto_motorcycle" depart="130.83" departLane="best" from="657914011" to="-761099416#0"/>
    <trip id="moto210" type="moto_motorcycle" depart="131.45" departLane="best" from="-498282079" to="159794820#2"/>
    <trip id="moto211" type="moto_motorcycle" depart="132.08" departLane="best" from="761099431" to="-255784670"/>
    <trip id="moto213" type="moto_motorcycle" depart="133.33" departLane="best" from="42412657#1" to="229610043#1"/>
    <trip id="moto215" type="moto_motorcycle" depart="134.58" departLane="best" from="42353576#7" to="121399180#4"/>
    <trip id="moto216" type="moto_motorcycle" depart="135.21" departLane="best" from="518469011#9" to="318612594#2"/>
    <trip id="moto217" type="moto_motorcycle" depart="135.83" departLane="best" from="170244826#0" to="-207287102#2"/>
    <trip id="moto220" type="moto_motorcycle" depart="137.71" departLane="best" from="-628042954#1" to="72701418#3"/>
    <trip id="moto221" type="moto_motorcycle" depart="138.34" departLane="best" from="-373350938#2" to="-682588659#2"/>
    <trip id="moto222" type="moto_motorcycle" depart="138.96" departLane="best" from="-42353538#2" to="167659656#2"/>
    <trip id="moto223" type="moto_motorcycle" depart="139.59" departLane="best" from="498065515#10" to="144929524#3"/>
    <trip id="moto224" type="moto_motorcycle" depart="140.22" departLane="best" from="114108335" to="177353873#1"/>
    <trip id="moto225" type="moto_motorcycle" depart="140.84" departLane="best" from="136512015#7" to="629221656#6-AddedOnRampEdge"/>
    <trip id="moto226" type="moto_motorcycle" depart="141.47" departLane="best" from="-657913828#0" to="172179667#0"/>
    <trip id="moto227" type="moto_motorcycle" depart="142.09" departLane="best" from="-545587243#1" to="161355940#0"/>
    <trip id="moto228" type="moto_motorcycle" depart="142.72" departLane="best" from="159794820#0-AddedOffRampEdge" to="-30064844#0"/>
    <trip id="moto229" type="moto_motorcycle" depart="143.35" departLane="best" from="156469345#3" to="177353860#2"/>
    <trip id="moto230" type="moto_motorcycle" depart="143.97" departLane="best" from="-264713190" to="-227668234#1"/>
    <trip id="moto231" type="moto_motorcycle" depart="144.60" departLane="best" from="302985877#1" to="-136597124"/>
    <trip id="moto232" type="moto_motorcycle" depart="145.22" departLane="best" from="227668232#6" to="-658253360#0"/>
    <trip id="moto233" type="moto_motorcycle" depart="145.85" departLane="best" from="629221656#1" to="-191049869#2"/>
    <trip id="moto234" type="moto_motorcycle" depart="146.48" departLane="best" departSpeed="max" from="139378012#0" to="171981480#1-AddedOnRampEdge"/>
    <trip id="moto235" type="moto_motorcycle" depart="147.10" departLane="best" from="-42400052#5" to="240367934#4"/>
    <trip id="moto236" type="moto_motorcycle" depart="147.73" departLane="best" from="136511998#4" to="444000967#4"/>
    <trip id="moto237" type="moto_motorcycle" depart="148.35" departLane="best" from="32954719#1" to="-628042969#0"/>
    <trip id="moto238" type="moto_motorcycle" depart="148.98" departLane="best" from="686996775#2" to="818679647#14"/>
    <trip id="moto239" type="moto_motorcycle" depart="149.61" departLane="best" from="106620126#4" to="240367934#11"/>
    <trip id="moto240" type="moto_motorcycle" depart="150.23" departLane="best" from="161296937#0" to="207287102#6"/>
    <trip id="moto241" type="moto_motorcycle" depart="150.86" departLane="best" from="142101048#5" to="628042957#2"/>
    <trip id="moto242" type="moto_motorcycle" depart="151.48" departLane="best" from="-50633474" to="-50633424#0"/>
    <trip id="moto243" type="moto_motorcycle" depart="152.11" departLane="best" from="-887441674" to="-369334423#1"/>
    <trip id="moto244" type="moto_motorcycle" depart="152.74" departLane="best" from="-121510228#2" to="-321833271#0"/>
    <trip id="moto245" type="moto_motorcycle" depart="153.36" departLane="best" from="519263409" to="-545585564#5"/>
    <trip id="moto246" type="moto_motorcycle" depart="153.99" departLane="best" from="227131351#0" to="227131352#9"/>
    <trip id="moto247" type="moto_motorcycle" depart="154.61" departLane="best" from="297715143#1" to="176576431"/>
    <trip id="moto248" type="moto_motorcycle" depart="155.24" departLane="best" from="169352437#2" to="-83892649#2"/>
    <trip id="moto249" type="moto_motorcycle" depart="155.87" departLane="best" from="163822320#0" to="136512037#2"/>
    <trip id="moto250" type="moto_motorcycle" depart="156.49" departLane="best" from="121100408#10" to="177353854#0"/>
    <trip id="moto251" type="moto_motorcycle" depart="157.12" departLane="best" from="498275831" to="227668226"/>
    <trip id="moto252" type="moto_motorcycle" depart="157.74" departLane="best" from="42400122#1" to="498283241"/>
    <trip id="moto253" type="moto_motorcycle" depart="158.37" departLane="best" from="121100435#1" to="121399266"/>
    <trip id="moto254" type="moto_motorcycle" depart="159.00" departLane="best" from="121399145#1-AddedOnRampEdge" to="161355941#3"/>
    <trip id="moto255" type="moto_motorcycle" depart="159.62" departLane="best" from="33455720#4" to="136512037#0"/>
    <trip id="moto256" type="moto_motorcycle" depart="160.25" departLane="best" from="136512002#0" to="136511986#3"/>
    <trip id="moto257" type="moto_motorcycle" depart="160.87" departLane="best" from="302985879#1" to="628042965#1"/>
    <trip id="moto258" type="moto_motorcycle" depart="161.50" departLane="best" from="163057033#5" to="657913840"/>
    <trip id="moto259" type="moto_motorcycle" depart="162.12" departLane="best" from="-369334399#1" to="-853328363"/>
    <trip id="moto260" type="moto_motorcycle" depart="162.75" departLane="best" from="-389714440#0" to="26307123"/>
    <trip id="moto261" type="moto_motorcycle" depart="163.38" departLane="best" from="-545585790#9" to="156469322"/>
    <trip id="moto262" type="moto_motorcycle" depart="164.00" departLane="best" from="121510228#3" to="743595587#2"/>
    <trip id="moto263" type="moto_motorcycle" depart="164.63" departLane="best" from="171981479-AddedOffRampEdge" to="60110726#1"/>