<?xml version="1.0" encoding="UTF-8"?>

<!-- generated on 05/07/21 16:38:20 by Eclipse SUMO polyconvert Version 1.8.0
<configuration xmlns:xsi="http://www.w3.org/2001/XMLSchema-instance" xsi:noNamespaceSchemaLocation="http://sumo.dlr.de/xsd/polyconvertConfiguration.xsd">

    <input>
        <net-file value="osm.net.xml"/>
        <osm-files value="osm_bbox.osm.xml"/>
        <osm.keep-full-type value="true"/>
        <type-file value="E:\sumo-1.8.0\data\typemap\osmPolyconvert.typ.xml"/>
    </input>

    <output>
        <output-file value="osm.poly.xml"/>
    </output>

    <processing>
        <poi-layer-offset value="5"/>
    </processing>

    <report>
        <verbose value="true"/>
    </report>

</configuration>
-->

<additional xmlns:xsi="http://www.w3.org/2001/XMLSchema-instance" xsi:noNamespaceSchemaLocation="http://sumo.dlr.de/xsd/additional_file.xsd">
    <location netOffset="-425332.75,-4410576.01" convBoundary="-0.00,-3607.07,37457.67,35739.43" origBoundary="116.124415,39.810910,116.564237,40.164195" projParameter="+proj=utm +zone=50 +ellps=WGS84 +datum=WGS84 +units=m +no_defs"/>

    <poly id="104345641" type="building.university" color="255,230,230" fill="1" layer="-1.00" shape="15431.255622,16519.040811 15432.370538,16501.039322 15499.969489,16505.186504 15498.854414,16523.187982 15431.255622,16519.040811"/>
    <poly id="105276037" type="landuse.forest" color="140,196,107" fill="1" layer="-3.00" shape="16221.964251,17664.932384 16248.742700,17673.839661 16297.171473,17686.399225 16432.110381,17698.362979 16440.308097,17642.978753 16404.157440,17639.714682 16398.494650,17630.378708 16398.651774,17617.457320 16337.412298,17616.372628 16332.448423,17621.383406 16279.847243,17619.122965 16280.231526,17565.752091 16235.416493,17561.445331 16221.964251,17664.932384"/>
    <poly id="105276037#1" type="leisure.park" color="207,245,201" fill="1" layer="-2.00" shape="16221.964251,17664.932384 16248.742700,17673.839661 16297.171473,17686.399225 16432.110381,17698.362979 16440.308097,17642.978753 16404.157440,17639.714682 16398.494650,17630.378708 16398.651774,17617.457320 16337.412298,17616.372628 16332.448423,17621.383406 16279.847243,17619.122965 16280.231526,17565.752091 16235.416493,17561.445331 16221.964251,17664.932384"/>
    <poly id="105276039" type="building.yes" color="255,230,230" fill="1" layer="-1.00" shape="16879.464564,16530.982964 16930.360152,16531.418056 16930.684034,16494.209131 16879.788197,16493.774034 16879.464564,16530.982964"/>
    <poly id="105276040" type="building.yes" color="255,230,230" fill="1" layer="-1.00" shape="16943.945069,16818.655116 17063.127418,16821.281729 17063.255892,16815.697565 17064.152767,16767.262424 17057.228092,16767.137247 16941.511837,16764.617615 16940.395489,16815.529702 16940.316118,16818.571646 16943.945069,16818.655116"/>
    <poly id="106620125" type="leisure.pitch" color="207,245,201" fill="1" layer="-2.00" shape="18021.687098,14571.528172 18021.062586,14464.609236 18090.821395,14464.201664 18091.444927,14571.120596 18021.687098,14571.528172"/>
    <poly id="106620125#1" type="sport.soccer" color="79,230,125" fill="1" layer="-2.00" shape="18021.687098,14571.528172 18021.062586,14464.609236 18090.821395,14464.201664 18091.444927,14571.120596 18021.687098,14571.528172"/>
    <poly id="106622977" type="leisure.pitch" color="207,245,201" fill="1" layer="-2.00" shape="18320.935246,16810.565674 18323.125494,16705.124039 18392.638253,16706.552143 18390.447042,16811.993748 18320.935246,16810.565674"/>
    <poly id="106622977#1" type="sport.soccer" color="79,230,125" fill="1" layer="-2.00" shape="18320.935246,16810.565674 18323.125494,16705.124039 18392.638253,16706.552143 18390.447042,16811.993748 18320.935246,16810.565674"/>
    <poly id="107039545" type="building.yes" color="255,230,230" fill="1" layer="-1.00" shape="16203.357973,13150.882898 16235.566708,13157.473244 16237.866550,13155.535350 16248.180762,13048.110668 16262.495097,13050.187572 16253.444615,13158.701417 16251.791345,13162.532404 16246.802551,13169.130605 16244.918999,13170.776710 16238.222565,13174.113587 16200.114620,13165.659345 16203.357973,13150.882898"/>
    <poly id="107039547" type="building.yes" color="255,230,230" fill="1" layer="-1.00" shape="16183.699839,13160.313161 16193.286290,13149.583825 16171.440358,13123.256439 16162.688779,13133.701898 16183.699839,13160.313161"/>
    <poly id="107050552" type="leisure.park" color="207,245,201" fill="1" layer="-2.00" shape="16293.944036,13276.392353 16330.847202,13279.295309 16334.673097,13276.990566 16336.711480,13268.794450 16338.907845,13190.868559 16306.037518,13189.311030 16293.944036,13276.392353"/>
    <poly id="107050565" type="leisure.park" color="207,245,201" fill="1" layer="-2.00" shape="16315.854703,13079.326218 16338.790110,13080.660158 16334.437442,13154.739836 16357.859701,13156.103401 16356.627333,13176.991441 16310.261474,13174.294025 16315.854703,13079.326218"/>
    <poly id="107050568" type="building.commercial" color="255,230,230" fill="1" layer="-1.00" shape="16312.254972,13450.151747 16334.383175,13372.983353 16404.216253,13372.004963 16396.914916,13459.271477 16331.162567,13454.324734 16312.254972,13450.151747"/>
    <poly id="107050574" type="leisure.park" color="207,245,201" fill="1" layer="-2.00" shape="16262.606335,13416.766802 16295.759700,13433.095717 16300.139425,13433.972338 16304.818935,13429.385591 16319.359774,13365.228686 16330.556639,13366.275110 16333.659553,13361.023371 16335.761592,13293.099056 16333.472347,13290.841137 16294.309659,13289.553846 16290.492457,13292.990716 16262.606335,13416.766802"/>
    <poly id="108232544" type="amenity.university" color="237,199,199" fill="1" layer="-1.00" shape="13052.874281,17883.077146 13063.718613,17792.846938 12990.354483,17783.973157 12996.557440,17746.760363 13016.271518,17750.385646 13032.421390,17595.399946 13050.781589,17597.293608 13055.047382,17567.478009 13025.878870,17560.188545 13027.929288,17503.495806 13165.586272,17492.480670 13280.291690,17504.052781 13411.609207,17533.696675 13396.721274,17678.881127 13366.313340,17975.315892 13183.173594,17947.956367 13188.496610,17899.995036 13052.874281,17883.077146"/>
    <poly id="111562331" type="building.yes" color="255,230,230" fill="1" layer="-1.00" shape="21742.628334,16072.557579 21745.237031,16011.824355 21805.669731,16014.401327 21803.382975,16074.843695 21756.653404,16073.392443 21742.628334,16072.557579"/>
    <poly id="111562331#1" type="landuse.commercial" color="209,209,204" fill="1" layer="-3.00" shape="21742.628334,16072.557579 21745.237031,16011.824355 21805.669731,16014.401327 21803.382975,16074.843695 21756.653404,16073.392443 21742.628334,16072.557579"/>
    <poly id="114391761" type="amenity.parking" color="184,184,179" fill="1" layer="-1.00" shape="14049.310550,14439.267303 14048.398354,14465.214854 14069.124483,14466.248684 14070.020465,14440.401165 14111.406205,14442.680427 14124.599264,14524.170329 14010.183422,14516.844735 14009.596328,14488.167460 13991.629882,14487.289402 13960.199175,14485.741718 13959.436523,14441.492787 13964.514046,14434.592620 14049.310550,14439.267303"/>
    <poly id="114391765" type="building.yes" color="255,230,230" fill="1" layer="-1.00" shape="14193.062391,15368.068038 14280.909647,15373.298064 14280.734545,15351.221883 14306.585489,15352.748459 14313.608930,15343.613115 14315.024278,15320.725141 14338.752419,15321.591566 14387.410998,14491.449994 14343.700013,14489.898045 14363.237093,14637.359786 14364.546957,14663.655984 14364.703232,14683.390225 14362.904736,14704.305428 14358.819152,14720.021830 14365.881993,14731.953703 14364.683160,14740.165964 14360.316332,14748.403314 14332.923102,14807.915560 14331.775759,14823.697499 14331.268758,14839.463265 14331.985598,14850.180015 14327.653876,14862.834838 14327.180999,14885.060433 14346.972544,14886.846092 14343.606656,14952.428319 14327.705648,14951.266730 14323.798601,15030.428353 14323.877944,15040.439768 14326.856156,15048.807635 14331.166382,15060.394997 14337.072561,15069.716451 14336.870950,15085.224507 14212.961433,15078.126653 14211.268506,15110.118708 14177.858308,15108.441595 14173.630095,15171.688736 14205.925603,15173.896370 14193.062391,15368.068038"/>
    <poly id="114391772" type="building.yes" color="255,230,230" fill="1" layer="-1.00" shape="14195.391501,14815.178032 14214.819339,14816.300250 14214.516512,14827.635576 14249.594706,14829.510535 14293.668747,14831.858217 14303.690888,14664.471138 14204.946357,14659.116317 14195.391501,14815.178032"/>
    <poly id="120402735" type="amenity.parking" color="184,184,179" fill="1" layer="-1.00" shape="14370.051698,14863.819863 14411.256053,14866.146545 14414.286157,14813.087623 14416.595801,14772.577205 14375.390856,14770.239388 14370.051698,14863.819863"/>
    <poly id="120418507" type="waterway.stream" color="181,209,209" fill="0" layer="-4.00" shape="21782.691133,18942.910308 21779.244414,18908.736104 21788.154390,18873.099608 21809.968685,18849.682988 21836.869156,18833.534699"/>
    <poly id="121162695" type="waterway.stream" color="181,209,209" fill="0" layer="-4.00" shape="22472.738558,20546.500006 22420.524946,20537.679280 22356.353866,20527.220740 22320.522015,20508.320425 22274.367844,20453.916837 22261.325615,20421.184893 22261.143257,20394.735532 22274.654604,20361.820538 22292.825299,20342.548310 22321.010414,20314.083194 22349.296121,20300.202514 22375.850062,20300.019795 22404.211239,20297.094214 22432.390121,20283.780666 22451.590457,20267.731770 22466.398781,20233.409668 22463.853283,20196.997915 22456.819972,20175.601589 22440.302216,20143.703508 22426.364902,20135.907387 22408.938080,20131.931377 22385.609863,20133.457049 22372.288697,20127.166348 22356.175978,20114.512548 22342.355369,20101.376817 22322.161054,20093.313163 22294.191744,20087.578565 22276.804633,20088.153463 22254.860482,20092.411623 22235.601049,20087.527368 22214.967777,20082.652641 22192.970087,20079.152652 22177.841527,20075.616393 22169.330976,20036.914975 22161.858441,20015.077956 22152.128259,19998.728696 22133.365915,19983.085644 22127.128936,19954.835588 22118.552529,19909.130766 22108.363570,19891.874557 22091.299015,19873.755732 22070.602023,19859.768967 22058.279043,19853.549598 22039.489121,19850.027845 22013.417147,19853.493889 21992.860763,19859.829929 21977.445264,19881.459094 21970.281780,19904.307554 21963.084568,19923.515551 21952.184557,19935.445619 21932.088003,19941.601045 21910.098621,19939.378276 21882.617717,19937.748683 21861.152472,19944.646382 21846.574527,19955.325687 21838.005974,19973.622062 21834.008742,19991.531484 21841.047655,20015.913045 21849.403769,20033.370336 21856.399571,20051.558568 21861.560740,20069.759551 21868.594487,20093.419692 21872.883120,20117.465194 21875.822381,20146.270750 21876.330024,20153.015853"/>
    <poly id="121242113" type="natural.water" color="181,209,209" fill="1" layer="-4.00" shape="21836.869156,18833.534699 21834.114506,18820.322998 21834.909792,18803.346037 21853.114481,18787.347024 21866.710957,18767.739349 21871.163523,18748.916653 21866.498194,18737.094569 21855.444594,18727.137197 21837.097807,18722.702650 21819.199214,18716.444682 21809.495852,18704.291353 21807.570558,18690.074925 21816.598881,18671.409092 21833.871939,18653.951355 21856.669356,18640.484484 21893.671282,18628.550760 21937.570265,18620.398789 21992.959821,18618.738497 22030.506275,18618.844834 22074.087108,18631.307976 22109.438254,18644.749507 22151.215363,18661.787522 22173.322882,18680.604259 22202.741413,18696.462502 22240.364394,18708.967689 22275.660817,18714.562884 22301.270979,18710.379513 22332.819341,18703.402642 22369.357060,18690.930547 22399.919980,18674.670301 22415.436956,18667.271186 22427.834910,18671.747984 22439.748356,18674.030393 22439.778463,18678.414559 22427.893767,18680.316532 22424.271476,18687.267615 22430.706017,18690.875210 22449.027438,18691.659564 22466.410668,18688.809707 22472.309137,18681.465635 22469.071116,18676.015717 22457.620225,18676.460608 22455.286629,18669.728024 22468.993490,18664.705677 22484.489527,18655.486501 22511.952363,18653.832959 22556.388950,18656.813856 22584.304203,18655.168576 22608.087224,18652.086525 22628.169985,18642.092572 22654.596458,18623.675031 22675.061884,18603.466889 22685.491392,18588.433239 22692.208511,18565.954896 22702.061353,18533.964916 22714.658688,18501.401221 22723.614712,18471.792730 22730.043814,18442.101611 22719.350428,18418.543446 22710.112343,18405.619937 22703.794701,18385.406202 22703.990675,18347.876888 22702.548183,18305.397218 22699.232357,18279.812943 22698.104993,18260.973413 22718.032618,18259.338829 22740.486775,18257.709249 22749.023577,18324.182366 22767.517315,18476.432373 22755.473316,18522.578193 22740.042870,18542.740632 22718.565068,18549.735800 22709.986552,18567.120985 22713.342007,18588.531527 22741.775015,18595.174747 22753.672340,18595.093528 22783.557204,18613.137452 22798.781690,18630.360191 22798.503534,18655.902428 22795.873564,18673.246951 22770.771236,18684.362479 22742.890570,18692.311454 22743.457299,18707.813827 22763.626842,18711.783025 22782.917318,18720.764226 22791.298554,18740.775257 22794.663879,18764.927388 22779.697878,18785.552779 22765.922313,18779.253368 22754.452751,18775.690960 22737.542989,18780.368374 22727.505870,18792.846354 22715.389281,18812.009458 22701.437489,18823.637344 22684.842424,18828.135132 22669.298131,18831.526904 22653.258074,18829.816248 22636.738195,18824.090825 22618.332192,18810.897164 22603.633395,18803.150307 22598.107277,18798.814868 22580.723039,18801.486840 22568.655408,18812.791277 22567.629499,18824.996852 22566.849745,18840.741539 22573.456698,18863.317423 22582.950161,18883.664707 22586.036151,18911.803459 22589.108514,18937.955464 22583.768948,18970.813788 22581.658507,18987.910652 22568.579004,18995.980921 22558.274130,18986.738894 22522.632588,19016.475067 22487.502966,19008.835262 22465.628118,19016.200189 22458.231488,19026.562576 22447.774777,19042.451427 22434.620948,19060.789650 22419.075939,19063.993255 22401.796182,19080.528440 22376.281329,19098.396754 22355.708859,19102.733933 22334.147946,19096.133677 22301.017419,19072.652821 22285.267737,19046.133142 22274.547738,19017.558695 22244.155908,18992.782748 22210.204591,18982.805161 22167.144697,18978.717941 22144.609895,18964.643746 22132.989099,18939.194727 22122.727067,18911.538598 22113.431064,18891.534593 22092.314059,18883.833075 22062.478783,18871.818638 22038.992424,18852.279185 22016.059318,18847.332067 21986.371630,18856.661614 21943.796138,18857.322958 21908.045563,18852.642634 21878.235134,18844.269442 21852.133171,18843.906790 21836.869156,18833.534699"/>
    <poly id="121242117" type="natural.water" color="181,209,209" fill="1" layer="-4.00" shape="22501.704375,18973.973621 22486.928160,18954.916945 22471.223922,18934.956492 22456.959388,18924.565213 22444.467957,18906.414206 22446.582064,18879.949144 22469.414817,18871.578623 22500.601381,18879.123304 22534.059410,18884.366005 22545.663338,18907.540295 22538.579326,18943.618417 22530.487570,18964.652288 22514.971100,18972.051177 22501.704375,18973.973621"/>
    <poly id="121242118" type="natural.water" color="181,209,209" fill="1" layer="-4.00" shape="22377.303357,18925.567606 22367.553527,18906.487696 22383.414058,18878.374131 22400.693674,18866.722778 22423.368622,18861.472215 22433.767671,18883.133961 22402.416915,18916.282123 22377.303357,18925.567606"/>
    <poly id="121242120" type="natural.water" color="181,209,209" fill="1" layer="-4.00" shape="22328.182663,19056.504445 22317.360519,19036.621700 22310.954962,19011.158716 22302.590314,18993.701003 22293.614280,18982.896223 22275.431713,18961.288283 22273.550246,18947.104745 22269.429086,18931.160689 22275.369373,18920.031173 22271.747048,18912.075454 22265.732771,18911.228920 22260.993321,18902.170935 22266.735237,18895.693549 22276.319937,18896.959474 22283.493431,18903.780763 22297.455787,18898.756337 22317.195628,18907.289278 22345.191233,18916.220551 22357.718255,18940.753474 22372.908658,18952.969650 22403.574490,18951.837557 22423.748989,18955.350727 22444.353832,18955.664285 22457.275631,18970.626729 22457.407158,18989.783881 22449.670891,18996.674405 22427.757875,19005.937749 22405.970391,19033.459278 22396.904083,19046.741319 22381.669322,19062.796306 22368.193494,19066.551872 22341.384755,19065.060246 22328.182663,19056.504445"/>
    <poly id="121375738" type="building.train_station" color="255,230,230" fill="1" layer="-1.00" shape="19046.932053,14607.104317 19046.902789,14585.560027 18896.742630,14585.736989 18896.772399,14607.292382 19046.932053,14607.104317"/>
    <poly id="121375739" type="building.train_station" color="255,230,230" fill="1" layer="-1.00" shape="20168.643962,14580.624062 20168.560910,14598.850304 20383.228116,14599.825554 20383.311682,14581.599319 20168.643962,14580.624062"/>
    <poly id="121510285" type="amenity.parking" color="184,184,179" fill="1" layer="-1.00" shape="19951.300071,17325.371885 19952.816591,17220.490860 19953.260619,17189.641559 19953.335675,17184.646148 19991.277207,17185.250288 19991.144538,17227.374656 20037.576213,17227.474030 19968.957481,17325.899806 19958.754660,17325.673470 19951.300071,17325.371885"/>
    <poly id="121703416" type="amenity.bus_station" color="237,199,199" fill="1" layer="-1.00" shape="13564.838558,17266.744243 13558.415827,17271.679775 13550.026669,17281.559457 13544.004794,17330.014445 13544.494423,17339.956013 13544.975605,17349.908748 13539.508961,17364.393622 13530.189427,17367.898369 13523.372975,17365.255872 13517.929048,17351.757757 13519.728722,17339.877510 13527.520672,17325.806832 13534.433883,17262.925913 13531.047215,17255.793696 13533.758957,17242.674040 13541.192940,17231.847423 13565.866974,17204.521119 13599.129898,17175.139081 13628.879743,17155.819670 13641.943265,17145.425296 13647.137784,17149.124297 13664.457825,17141.492998 13670.694781,17150.633700 13640.497980,17179.169433 13636.397977,17191.656387 13686.158744,17242.683176 13672.515239,17256.323294 13624.024789,17206.152193 13617.272803,17205.174076 13580.285343,17249.126790 13628.551920,17299.055214 13614.954405,17312.017979 13571.430714,17268.023293 13564.838558,17266.744243"/>
    <poly id="121703416#1" type="building.yes" color="255,230,230" fill="1" layer="-1.00" shape="13564.838558,17266.744243 13558.415827,17271.679775 13550.026669,17281.559457 13544.004794,17330.014445 13544.494423,17339.956013 13544.975605,17349.908748 13539.508961,17364.393622 13530.189427,17367.898369 13523.372975,17365.255872 13517.929048,17351.757757 13519.728722,17339.877510 13527.520672,17325.806832 13534.433883,17262.925913 13531.047215,17255.793696 13533.758957,17242.674040 13541.192940,17231.847423 13565.866974,17204.521119 13599.129898,17175.139081 13628.879743,17155.819670 13641.943265,17145.425296 13647.137784,17149.124297 13664.457825,17141.492998 13670.694781,17150.633700 13640.497980,17179.169433 13636.397977,17191.656387 13686.158744,17242.683176 13672.515239,17256.323294 13624.024789,17206.152193 13617.272803,17205.174076 13580.285343,17249.126790 13628.551920,17299.055214 13614.954405,17312.017979 13571.430714,17268.023293 13564.838558,17266.744243"/>
    <poly id="121703420" type="amenity.fuel" color="237,199,199" fill="1" layer="-1.00" shape="13638.380960,17399.496943 13683.449171,17442.491728 13697.655197,17427.714923 13707.772135,17417.188865 13662.704008,17374.205036 13651.579550,17385.771523 13638.380960,17399.496943"/>
    <poly id="121703420#1" type="building.yes" color="255,230,230" fill="1" layer="-1.00" shape="13638.380960,17399.496943 13683.449171,17442.491728 13697.655197,17427.714923 13707.772135,17417.188865 13662.704008,17374.205036 13651.579550,17385.771523 13638.380960,17399.496943"/>
    <poly id="121703421" type="amenity.parking" color="184,184,179" fill="1" layer="-1.00" shape="13569.080540,17406.968369 13625.925431,17353.676628 13638.679508,17341.997133 13660.347317,17323.031257 13696.993339,17287.595277 13701.786788,17282.806116 13754.734586,17339.646343 13748.145573,17454.960297 13696.682103,17502.291763 13680.881511,17500.231726 13617.323580,17493.437742 13626.103743,17417.399652 13569.080540,17406.968369"/>
    <poly id="121777668" type="building.train_station" color="255,230,230" fill="1" layer="-1.00" shape="13676.927295,17075.082346 13667.266833,17055.279898 13511.321061,17130.767690 13520.981843,17150.569946 13676.927295,17075.082346"/>
    <poly id="121778760" type="building.yes" color="255,230,230" fill="1" layer="-1.00" shape="15687.701507,15363.379748 15730.862239,15373.978805 15727.823944,15389.619736 15714.641353,15440.525566 15704.588786,15453.445879 15693.405242,15462.556638 15664.281509,15457.310098 15687.701507,15363.379748"/>
    <poly id="121778760#1" type="shop.computer" color="237,199,255" fill="1" layer="-1.00" shape="15687.701507,15363.379748 15730.862239,15373.978805 15727.823944,15389.619736 15714.641353,15440.525566 15704.588786,15453.445879 15693.405242,15462.556638 15664.281509,15457.310098 15687.701507,15363.379748"/>
    <poly id="121778761" type="building.commercial" color="255,230,230" fill="1" layer="-1.00" shape="15826.672172,15478.319450 15822.798562,15411.317741 15823.375943,15395.429476 15827.717534,15381.565580 15838.062176,15366.623017 15851.709888,15358.115030 15927.175407,15361.284133 15922.203310,15472.731085 15857.435558,15470.356287 15855.009183,15479.021770 15826.672172,15478.319450"/>
    <poly id="121965165" type="natural.water" color="181,209,209" fill="1" layer="-4.00" shape="22457.126099,18848.153855 22451.291011,18841.090121 22452.120747,18832.659766 22496.315784,18815.507133 22512.807979,18810.954140 22531.944550,18816.150771 22535.184243,18834.309836 22539.736506,18848.475122 22528.725793,18863.290979 22509.089312,18869.807949 22489.378608,18866.746455 22478.581435,18860.427128 22471.430249,18855.592348 22457.126099,18848.153855"/>
    <poly id="121965179" type="natural.water" color="181,209,209" fill="1" layer="-4.00" shape="22452.974397,18795.392274 22467.874461,18802.593577 22485.969457,18800.271659 22510.637076,18794.330608 22525.109974,18794.009369 22536.764181,18804.574065 22548.487877,18806.602648 22558.991227,18802.423792 22573.580134,18794.121181 22583.089144,18778.094714 22590.314884,18763.904241 22597.992168,18748.345425 22600.687235,18740.579399 22592.847527,18732.419315 22580.929413,18730.680585 22570.422834,18734.404344 22566.277947,18729.870772 22566.165486,18713.455120 22555.983072,18698.473723 22540.829975,18691.729068 22522.015597,18685.020645 22509.206039,18686.473745 22497.839454,18697.962178 22490.573911,18707.579944 22481.014130,18714.949126 22468.204628,18716.402296 22454.027320,18718.775052 22438.529242,18728.915581 22437.942455,18745.380437 22439.181369,18764.219186 22445.276453,18776.819866 22452.974397,18795.392274"/>
    <poly id="121965200" type="natural.water" color="181,209,209" fill="1" layer="-4.00" shape="22716.564054,18679.127238 22727.591711,18685.445328 22737.206984,18684.913480 22751.783882,18674.790956 22760.882321,18666.060009 22769.965253,18655.053747 22773.520796,18639.523246 22772.982148,18628.127560 22765.603385,18619.964155 22751.354290,18611.858753 22736.232351,18609.675462 22724.806108,18612.495110 22711.591556,18622.153290 22705.733306,18635.424122 22706.771102,18653.653793 22711.014863,18671.417575 22716.564054,18679.127238"/>
    <poly id="121965204" type="natural.water" color="181,209,209" fill="1" layer="-4.00" shape="22613.002816,18785.426583 22622.131096,18796.064196 22633.575783,18795.985881 22640.415683,18792.753478 22653.237534,18793.120858 22666.563881,18799.867124 22678.014785,18800.699008 22690.827288,18799.701255 22699.483379,18793.714873 22709.937006,18782.244080 22725.008730,18777.124071 22740.992875,18770.632603 22754.706123,18767.797363 22769.369130,18769.062545 22779.458511,18771.735319 22786.282116,18764.851367 22784.802284,18749.355221 22776.021572,18737.094493 22765.886342,18728.960997 22751.680940,18727.226510 22741.142343,18725.023025 22731.464740,18716.420264 22722.238656,18706.449171 22711.229829,18702.883679 22701.215111,18711.154762 22697.641888,18725.320163 22697.270564,18737.177152 22692.743665,18745.421848 22684.554607,18752.315217 22670.361748,18752.412243 22653.856671,18748.873316 22643.440154,18743.305931 22624.312382,18745.645638 22614.786813,18753.036615 22612.402674,18762.587556 22612.470972,18772.565698 22613.002816,18785.426583"/>
    <poly id="121965210" type="natural.water" color="181,209,209" fill="1" layer="-4.00" shape="22617.575130,18732.705124 22604.672026,18720.483904 22598.596304,18703.198905 22600.303192,18684.484266 22619.954993,18678.877610 22631.814751,18673.324316 22642.277786,18663.218629 22655.953849,18654.922429 22672.402101,18648.871634 22689.333966,18647.390635 22696.706567,18654.643835 22697.627577,18658.278234 22701.882208,18675.131764 22691.861242,18682.492728 22676.812001,18692.174611 22668.202558,18704.998097 22660.936084,18713.261543 22650.930847,18722.908988 22640.916220,18731.180152 22633.151500,18733.974894 22617.575130,18732.705124"/>
    <poly id="121981790" type="building.yes" color="255,230,230" fill="1" layer="-1.00" shape="17742.168216,15321.212796 17759.513773,15322.770283 17760.239158,15314.717551 17742.893584,15313.160061 17742.168216,15321.212796"/>
    <poly id="121981792" type="amenity.parking" color="184,184,179" fill="1" layer="-1.00" shape="17819.819192,14723.977607 17829.041590,14654.146987 17894.964395,14657.173838 17894.034366,14675.606313 17908.591561,14676.374674 17906.179979,14702.266105 17887.839838,14715.245216 17882.141872,14728.707272 17819.819192,14723.977607"/>
    <poly id="121981793" type="building.train_station" color="255,230,230" fill="1" layer="-1.00" shape="17760.598978,15322.873169 17770.262871,15323.733320 17774.167317,15280.603859 17764.503371,15279.743703 17760.598978,15322.873169"/>
    <poly id="121982804" type="amenity.parking" color="184,184,179" fill="1" layer="-1.00" shape="17860.464632,14595.394767 17860.479606,14573.361704 17909.887927,14574.180965 18011.992701,14575.873682 18011.979523,14592.467860 18011.977207,14597.895640 17909.650708,14596.204581 17860.464632,14595.394767"/>
    <poly id="121986143" type="building.yes" color="255,230,230" fill="1" layer="-1.00" shape="17739.885970,15349.445398 17771.910905,15352.302831 17772.137111,15328.869592 17770.530733,15328.726200 17742.418938,15326.194704 17739.885970,15349.445398"/>
    <poly id="121986144" type="building.yes" color="255,230,230" fill="1" layer="-1.00" shape="17745.091380,15273.628559 17744.605562,15279.459554 17760.933479,15280.802660 17761.419226,15274.960568 17745.091380,15273.628559"/>
    <poly id="121988936" type="amenity.parking" color="184,184,179" fill="1" layer="-1.00" shape="15928.764099,15678.958999 15929.612737,15640.658163 15934.941686,15640.772445 15975.797180,15641.678326 15983.355074,15641.842056 15982.506165,15680.142883 15976.511109,15680.011505 15934.041793,15679.073675 15928.764099,15678.958999"/>
    <poly id="121988939" type="amenity.parking" color="184,184,179" fill="1" layer="-1.00" shape="16867.139954,15709.571007 16868.349346,15672.055705 16880.357332,15672.430733 16914.084136,15673.517858 16925.477211,15673.875423 16924.259085,15711.401876 16913.070977,15711.042760 16880.036168,15709.983688 16867.139954,15709.571007"/>
    <poly id="122100011" type="building.yes" color="255,230,230" fill="1" layer="-1.00" shape="17054.011684,16378.347427 17071.224314,16378.428044 17071.315725,16360.046124 17054.103053,16359.965507 17054.011684,16378.347427"/>
    <poly id="122100013" type="building.yes" color="255,230,230" fill="1" layer="-1.00" shape="17094.540872,16299.432132 17111.753679,16299.512842 17111.836572,16281.119892 17094.632261,16281.039116 17094.540872,16299.432132"/>
    <poly id="122100014" type="building.yes" color="255,230,230" fill="1" layer="-1.00" shape="17034.617262,16409.218448 17051.829824,16409.299020 17051.921101,16390.906000 17034.708498,16390.825427 17034.617262,16409.218448"/>
    <poly id="122100032" type="building.ruins" color="255,230,230" fill="1" layer="-1.00" shape="17093.408913,16320.219471 17097.432005,16310.299140 17087.566477,16306.333452 17085.462661,16311.510764 17083.543394,16316.253788 17093.408913,16320.219471"/>
    <poly id="122100033" type="building.yes" color="255,230,230" fill="1" layer="-1.00" shape="17096.138147,16326.614495 17100.520088,16329.145398 17114.114961,16305.799657 17109.733012,16303.268746 17096.138147,16326.614495"/>
    <poly id="122100037" type="building.yes" color="255,230,230" fill="1" layer="-1.00" shape="17071.962230,16310.092246 17076.392769,16300.990204 17087.566477,16306.333452 17085.462661,16311.510764 17079.833000,16308.822813 17077.832029,16312.922670 17071.962230,16310.092246"/>
    <poly id="122345025" type="building.yes" color="255,230,230" fill="1" layer="-1.00" shape="17741.630514,15801.980002 17741.682557,15783.820426 17767.827531,15783.891349 17767.793287,15795.302144 17763.780159,15795.287744 17763.762301,15802.036523 17741.630514,15801.980002"/>
    <poly id="122345922" type="building.yes" color="255,230,230" fill="1" layer="-1.00" shape="17974.115558,15835.675358 17974.487277,15801.896075 17961.738523,15801.757939 17961.375398,15835.537159 17974.115558,15835.675358"/>
    <poly id="122345923" type="building.yes" color="255,230,230" fill="1" layer="-1.00" shape="18003.617093,15792.322102 18003.277088,15805.144833 18073.134121,15806.967194 18073.474243,15794.144467 18003.617093,15792.322102"/>
    <poly id="122345931" type="building.yes" color="255,230,230" fill="1" layer="-1.00" shape="17885.259797,15803.926399 17899.333497,15819.150177 17915.056065,15804.736472 17900.982372,15789.512665 17885.259797,15803.926399"/>