<?xml version="1.0" encoding="UTF-8"?>

<!-- generated on 2021-11-01 17:09:27 by Eclipse SUMO duarouter Version 1.10.0
<configuration xmlns:xsi="http://www.w3.org/2001/XMLSchema-instance" xsi:noNamespaceSchemaLocation="http://sumo.dlr.de/xsd/duarouterConfiguration.xsd">

    <input>
        <net-file value="osm.net.xml"/>
        <route-files value="osm.bus.trips.xml"/>
    </input>

    <output>
        <output-file value="osm.bus.trips.xml.tmp"/>
        <write-trips value="true"/>
    </output>

    <time>
        <begin value="0"/>
        <end value="3600"/>
    </time>

    <report>
        <no-warnings value="true"/>
        <ignore-errors value="true"/>
        <no-step-log value="true"/>
    </report>

</configuration>
-->

<routes xmlns:xsi="http://www.w3.org/2001/XMLSchema-instance" xsi:noNamespaceSchemaLocation="http://sumo.dlr.de/xsd/routes_file.xsd">
    <vType id="bus_bus" vClass="bus"/>
    <trip id="bus0" type="bus_bus" depart="0.00" departLane="best" departSpeed="max" from="219487086#0" to="-128981932#6"/>
    <trip id="bus1" type="bus_bus" depart="0.63" departLane="best" from="-761099443#0" to="-60110766#0"/>
    <trip id="bus2" type="bus_bus" depart="1.25" departLane="best" from="29235352" to="236198639#5"/>
    <trip id="bus3" type="bus_bus" depart="1.88" departLane="best" from="55885564" to="-25207520#5"/>
    <trip id="bus5" type="bus_bus" depart="3.14" departLane="best" from="-582733767#0" to="161355981"/>
    <trip id="bus7" type="bus_bus" depart="4.39" departLane="best" from="227131351#0" to="165628815#5"/>
    <trip id="bus9" type="bus_bus" depart="5.65" departLane="best" from="42412798#2" to="-114108305#2"/>
    <trip id="bus10" type="bus_bus" depart="6.27" departLane="best" from="42412470" to="24691164#1"/>
    <trip id="bus11" type="bus_bus" depart="6.90" departLane="best" from="121399172#8-AddedOnRampEdge" to="-42655140#3"/>
    <trip id="bus12" type="bus_bus" depart="7.53" departLane="best" from="761099423#1" to="121100415"/>
    <trip id="bus13" type="bus_bus" depart="8.15" departLane="best" from="-264247408#2" to="-276920593#11"/>
    <trip id="bus14" type="bus_bus" depart="8.78" departLane="best" from="499427390#4" to="177353860#3"/>
    <trip id="bus15" type="bus_bus" depart="9.41" departLane="best" from="42412632#0" to="283538688#0"/>
    <trip id="bus16" type="bus_bus" depart="10.04" departLane="best" from="164899645#1" to="83800914"/>
    <trip id="bus17" type="bus_bus" depart="10.66" departLane="best" from="122020348#6" to="169107076"/>
    <trip id="bus18" type="bus_bus" depart="11.29" departLane="best" from="478014267" to="191049913#1"/>
    <trip id="bus19" type="bus_bus" depart="11.92" departLane="best" from="543824364#3" to="174787774#3"/>
    <trip id="bus20" type="bus_bus" depart="12.54" departLane="best" from="25214182#1-AddedOnRampEdge" to="-164919788"/>
    <trip id="bus21" type="bus_bus" depart="13.17" departLane="best" from="-628042954#1" to="-852490410#5"/>
    <trip id="bus22" type="bus_bus" depart="13.80" departLane="best" from="-23892248#4" to="-628042978"/>
    <trip id="bus23" type="bus_bus" depart="14.43" departLane="best" from="-297715143#6" to="-761099459#1"/>
    <trip id="bus24" type="bus_bus" depart="15.05" departLane="best" from="219330749#0-AddedOffRampEdge" to="121510224#2"/>
    <trip id="bus25" type="bus_bus" depart="15.68" departLane="best" from="121778742#6" to="-545585795"/>
    <trip id="bus26" type="bus_bus" depart="16.31" departLane="best" from="-743595591#5" to="682588657#1"/>
    <trip id="bus27" type="bus_bus" depart="16.94" departLane="best" from="226633385#2" to="182044606#1"/>
    <trip id="bus28" type="bus_bus" depart="17.56" departLane="best" from="-498065246" to="27945353#6"/>
    <trip id="bus29" type="bus_bus" depart="18.19" departLane="best" from="-46031346#2" to="122020348#8"/>
    <trip id="bus30" type="bus_bus" depart="18.82" departLane="best" from="886900163" to="22067160#2"/>
    <trip id="bus31" type="bus_bus" depart="19.44" departLane="best" from="169711582#0" to="240367923#4"/>
    <trip id="bus32" type="bus_bus" depart="20.07" departLane="best" from="498066064#0" to="40696643#1"/>
    <trip id="bus33" type="bus_bus" depart="20.70" departLane="best" from="-628042957#1" to="-155167619#0"/>
    <trip id="bus34" type="bus_bus" depart="21.33" departLane="best" from="114109019#0" to="-743595597#2"/>
    <trip id="bus35" type="bus_bus" depart="21.95" departLane="best" from="-545600011" to="686996983"/>
    <trip id="bus36" type="bus_bus" depart="22.58" departLane="best" from="545585564#4" to="114109006"/>
    <trip id="bus37" type="bus_bus" depart="23.21" departLane="best" from="227135616#1" to="128625055#2"/>
    <trip id="bus38" type="bus_bus" depart="23.84" departLane="best" from="631913012#0" to="152429679#1-AddedOffRampEdge"/>
    <trip id="bus39" type="bus_bus" depart="24.46" departLane="best" from="-72701010#0" to="-658421571#1"/>
    <trip id="bus40" type="bus_bus" depart="25.09" departLane="best" from="170478068#2" to="-686997748"/>
    <trip id="bus42" type="bus_bus" depart="26.34" departLane="best" from="128690887" to="-582799552"/>
    <trip id="bus43" type="bus_bus" depart="26.97" departLane="best" from="939163956" to="161460524#6"/>
    <trip id="bus44" type="bus_bus" depart="27.60" departLane="best" from="-25686353#0" to="-165743483#2"/>
    <trip id="bus45" type="bus_bus" depart="28.23" departLane="best" from="-32954719#3" to="200978003-AddedOnRampEdge"/>
    <trip id="bus46" type="bus_bus" depart="28.85" departLane="best" from="42364857#3" to="136867395#2"/>
    <trip id="bus47" type="bus_bus" depart="29.48" departLane="best" from="-188356149#6" to="122345027#2"/>
    <trip id="bus48" type="bus_bus" depart="30.11" departLane="best" departSpeed="max" from="93467825#0" to="163825161#2"/>
    <trip id="bus49" type="bus_bus" depart="30.73" departLane="best" from="83787825#5" to="518469013#1"/>
    <trip id="bus50" type="bus_bus" depart="31.36" departLane="best" from="-119617637#7" to="26927986"/>
    <trip id="bus51" type="bus_bus" depart="31.99" departLane="best" from="239167100#4" to="164899642#0"/>
    <trip id="bus52" type="bus_bus" depart="32.62" departLane="best" from="-743595591#3" to="220917824#1-AddedOnRampEdge"/>
    <trip id="bus53" type="bus_bus" depart="33.24" departLane="best" from="-32954781#8" to="143599467#1"/>
    <trip id="bus54" type="bus_bus" depart="33.87" departLane="best" from="150522794" to="743595597#3"/>
    <trip id="bus55" type="bus_bus" depart="34.50" departLane="best" from="545585521#2" to="-690857096#1"/>
    <trip id="bus56" type="bus_bus" depart="35.13" departLane="best" from="161355930#3" to="-499427589#3"/>
    <trip id="bus57" type="bus_bus" depart="35.75" departLane="best" from="629221660" to="544521970"/>
    <trip id="bus58" type="bus_bus" depart="36.38" departLane="best" from="-919970124" to="219332919#3"/>
    <trip id="bus59" type="bus_bus" depart="37.01" departLane="best" from="182857673#2" to="-42412632#1"/>
    <trip id="bus60" type="bus_bus" depart="37.63" departLane="best" from="369334423#1" to="164899661#1"/>
    <trip id="bus61" type="bus_bus" depart="38.26" departLane="best" from="41656946#7" to="163825696#1"/>
    <trip id="bus62" type="bus_bus" depart="38.89" departLane="best" from="-105276038#2" to="119617637#10"/>
    <trip id="bus63" type="bus_bus" depart="39.52" departLane="best" from="-122020348#6" to="658421572#6"/>
    <trip id="bus65" type="bus_bus" depart="40.77" departLane="best" from="106620140#7" to="-182857674#6"/>
    <trip id="bus66" type="bus_bus" depart="41.40" departLane="best" from="545585632#4" to="715784070#0"/>
    <trip id="bus67" type="bus_bus" depart="42.03" departLane="best" from="-251334042" to="159791634#5"/>
    <trip id="bus68" type="bus_bus" depart="42.65" departLane="best" from="-217610413#1" to="365806228#3"/>
    <trip id="bus70" type="bus_bus" depart="43.91" departLane="best" from="156469355" to="167659656#4"/>
    <trip id="bus72" type="bus_bus" depart="45.16" departLane="best" from="136867415#1" to="-545600151"/>
    <trip id="bus73" type="bus_bus" depart="45.79" departLane="best" from="165161567" to="283538688#4"/>
    <trip id="bus74" type="bus_bus" depart="46.42" departLane="best" from="-545585486#1" to="114108319#1"/>
    <trip id="bus75" type="bus_bus" depart="47.04" departLane="best" from="93467805#5" to="227131352#5"/>
    <trip id="bus76" type="bus_bus" depart="47.67" departLane="best" from="144929505#0-AddedOffRampEdge" to="161466915#2"/>
    <trip id="bus77" type="bus_bus" depart="48.30" departLane="best" from="-369334397#1" to="-60110822#5"/>
    <trip id="bus78" type="bus_bus" depart="48.92" departLane="best" from="121399160#3-AddedOffRampEdge" to="175210678#4"/>
    <trip id="bus81" type="bus_bus" depart="50.81" departLane="best" from="-628042957#0" to="628027951"/>
    <trip id="bus82" type="bus_bus" depart="51.43" departLane="best" from="519263408" to="-226511228#4"/>
    <trip id="bus83" type="bus_bus" depart="52.06" departLane="best" from="-657913831#3" to="229610044#2"/>
    <trip id="bus84" type="bus_bus" depart="52.69" departLane="best" from="-55814581#1" to="-40696643#2"/>
    <trip id="bus85" type="bus_bus" depart="53.32" departLane="best" from="682588658#3" to="172180974#3-AddedOnRampEdge"/>
    <trip id="bus86" type="bus_bus" depart="53.94" departLane="best" from="156469344#5" to="42353182#1"/>
    <trip id="bus87" type="bus_bus" depart="54.57" departLane="best" from="42412632#3" to="-543824362#2"/>
    <trip id="bus88" type="bus_bus" depart="55.20" departLane="best" from="-276920593#8" to="139882020#1"/>
    <trip id="bus89" type="bus_bus" depart="55.82" departLane="best" from="136867416#3" to="155167619#1"/>
    <trip id="bus90" type="bus_bus" depart="56.45" departLane="best" from="283538690#5" to="234435454#0"/>
    <trip id="bus91" type="bus_bus" depart="57.08" departLane="best" from="854231924#1" to="-285477927#1"/>
    <trip id="bus92" type="bus_bus" depart="57.71" departLane="best" from="128753742#5" to="121399160#0-AddedOffRampEdge"/>
    <trip id="bus93" type="bus_bus" depart="58.33" departLane="best" from="543824364#3" to="-658421581#0"/>
    <trip id="bus94" type="bus_bus" depart="58.96" departLane="best" from="-543824364#1" to="145291215#8"/>
    <trip id="bus95" type="bus_bus" depart="59.59" departLane="best" from="136867394" to="-784370831"/>
    <trip id="bus96" type="bus_bus" depart="60.22" departLane="best" from="-660682022#3" to="657913849"/>
    <trip id="bus97" type="bus_bus" depart="60.84" departLane="best" from="144929524#2" to="519216754"/>
    <trip id="bus98" type="bus_bus" depart="61.47" departLane="best" from="167659656#4" to="-169711582#2"/>
    <trip id="bus99" type="bus_bus" depart="62.10" departLane="best" from="in6" to="481724520#4"/>
    <trip id="bus100" type="bus_bus" depart="62.72" departLane="best" departSpeed="max" from="833742955" to="658253363#1"/>
    <trip id="bus101" type="bus_bus" depart="63.35" departLane="best" from="499473600#2" to="-48069908#0"/>
    <trip id="bus103" type="bus_bus" depart="64.61" departLane="best" from="128690932#1" to="-182857675#6"/>
    <trip id="bus104" type="bus_bus" depart="65.23" departLane="best" from="122090126" to="854231924#6"/>
    <trip id="bus105" type="bus_bus" depart="65.86" departLane="best" from="-72701010#3" to="42345998#9"/>
    <trip id="bus106" type="bus_bus" depart="66.49" departLane="best" from="150522812#3" to="136867415#0"/>
    <trip id="bus107" type="bus_bus" depart="67.11" departLane="best" from="761099424" to="93467805#2"/>
    <trip id="bus108" type="bus_bus" depart="67.74" departLane="best" from="169486002" to="26812157#2"/>
    <trip id="bus109" type="bus_bus" depart="68.37" departLane="best" from="-42655140#0" to="-868296016#1"/>
    <trip id="bus110" type="bus_bus" depart="69.00" departLane="best" departSpeed="max" from="833742955" to="174787790#1"/>
    <trip id="bus111" type="bus_bus" depart="69.62" departLane="best" from="165628794#1" to="314369063#2"/>
    <trip id="bus112" type="bus_bus" depart="70.25" departLane="best" from="-182857673#3" to="174933445#9"/>
    <trip id="bus113" type="bus_bus" depart="70.88" departLane="best" from="161355953" to="50625376#0"/>
    <trip id="bus114" type="bus_bus" depart="71.51" departLane="best" from="-437592495" to="761099438"/>
    <trip id="bus115" type="bus_bus" depart="72.13" departLane="best" from="-239167100#0" to="-518469005#2"/>
    <trip id="bus116" type="bus_bus" depart="72.76" departLane="best" from="176576448#3" to="234442007#2"/>
    <trip id="bus117" type="bus_bus" depart="73.39" departLane="best" from="-657913823#1" to="-367394045"/>
    <trip id="bus118" type="bus_bus" depart="74.01" departLane="best" from="55885440" to="-658253370#1"/>
    <trip id="bus119" type="bus_bus" depart="74.64" departLane="best" from="176576448#12" to="191050695#6"/>
    <trip id="bus120" type="bus_bus" depart="75.27" departLane="best" from="136597131" to="174933445#2"/>
    <trip id="bus122" type="bus_bus" depart="76.52" departLane="best" from="-545585521#2" to="26679430"/>
    <trip id="bus123" type="bus_bus" depart="77.15" departLane="best" from="-657913836#0" to="128625055#4"/>
    <trip id="bus124" type="bus_bus" depart="77.78" departLane="best" from="234435433" to="-930923203"/>
    <trip id="bus125" type="bus_bus" depart="78.41" departLane="best" from="114393691" to="32954774#3"/>
    <trip id="bus126" type="bus_bus" depart="79.03" departLane="best" from="-226633385#0" to="152429678#1-AddedOffRampEdge"/>
    <trip id="bus127" type="bus_bus" depart="79.66" departLane="best" from="in13" to="93467808#1"/>
    <trip id="bus129" type="bus_bus" depart="80.91" departLane="best" from="-72701010#3" to="666327598"/>
    <trip id="bus130" type="bus_bus" depart="81.54" departLane="best" from="121778742#1" to="-437592495"/>
    <trip id="bus131" type="bus_bus" depart="82.17" departLane="best" from="481724519#2" to="251329005"/>
    <trip id="bus132" type="bus_bus" depart="82.80" departLane="best" from="182857676#4" to="863690573#3"/>
    <trip id="bus133" type="bus_bus" depart="83.42" departLane="best" from="227131929#3" to="-119617626#3"/>
    <trip id="bus135" type="bus_bus" depart="84.68" departLane="best" from="227668234#1" to="686996768"/>
    <trip id="bus137" type="bus_bus" depart="85.93" departLane="best" from="-314369063#8" to="169352437#3"/>
    <trip id="bus138" type="bus_bus" depart="86.56" departLane="best" from="-761099423#1" to="177353867#8"/>
    <trip id="bus140" type="bus_bus" depart="87.81" departLane="best" from="217989191#0" to="-700257276#2"/>
    <trip id="bus141" type="bus_bus" depart="88.44" departLane="best" from="159794812#0" to="628027951"/>
    <trip id="bus142" type="bus_bus" depart="89.07" departLane="best" from="499426664#1" to="-26307123"/>
    <trip id="bus143" type="bus_bus" depart="89.70" departLane="best" from="136867416#3" to="-761099451#1"/>
    <trip id="bus144" type="bus_bus" depart="90.32" departLane="best" from="-106620133#0" to="392552182"/>
    <trip id="bus145" type="bus_bus" depart="90.95" departLane="best" from="219330754#0" to="-686996992#1"/>
    <trip id="bus146" type="bus_bus" depart="91.58" departLane="best" from="30064875#0" to="169102940#3"/>
    <trip id="bus147" type="bus_bus" depart="92.20" departLane="best" from="138690696#2" to="-119617632#0"/>
    <trip id="bus148" type="bus_bus" depart="92.83" departLane="best" from="-227668232#6" to="545587244"/>
    <trip id="bus149" type="bus_bus" depart="93.46" departLane="best" from="628027961" to="165628817#1-AddedOffRampEdge"/>
    <trip id="bus150" type="bus_bus" depart="94.09" departLane="best" from="481724521#1" to="174930880#5"/>
    <trip id="bus151" type="bus_bus" depart="94.71" departLane="best" from="-42411413#1" to="-391856790"/>
    <trip id="bus153" type="bus_bus" depart="95.97" departLane="best" from="42398718#0" to="518469013#0"/>
    <trip id="bus154" type="bus_bus" depart="96.60" departLane="best" from="60110697#0" to="-545587243#0"/>
    <trip id="bus155" type="bus_bus" depart="97.22" departLane="best" from="422119590#1" to="545600011"/>
    <trip id="bus156" type="bus_bus" depart="97.85" departLane="best" from="136511990#2" to="191050697#7"/>
    <trip id="bus157" type="bus_bus" depart="98.48" departLane="best" from="-42655136#6" to="658421576#1"/>
    <trip id="bus158" type="bus_bus" depart="99.10" departLane="best" from="543830601" to="84652153#6"/>
    <trip id="bus159" type="bus_bus" depart="99.73" departLane="best" from="42415934#4" to="545585790#8"/>
    <trip id="bus161" type="bus_bus" depart="100.99" departLane="best" from="120491981#1" to="658421586#1"/>
    <trip id="bus162" type="bus_bus" depart="101.61" departLane="best" from="42411426#0" to="543824367#1"/>
    <trip id="bus163" type="bus_bus" depart="102.24" departLane="best" from="42415934#3" to="-743595591#1"/>
    <trip id="bus164" type="bus_bus" depart="102.87" departLane="best" from="42355005#7" to="-318612594#2"/>
    <trip id="bus165" type="bus_bus" depart="103.49" departLane="best" from="544588914#3" to="518469005#4"/>
    <trip id="bus166" type="bus_bus" depart="104.12" departLane="best" from="152429679#1" to="106620126#6"/>
    <trip id="bus167" type="bus_bus" depart="104.75" departLane="best" from="42398612#1" to="-628042949#2"/>
    <trip id="bus168" type="bus_bus" depart="105.38" departLane="best" from="-128883552#2" to="-543824372#0"/>
    <trip id="bus169" type="bus_bus" depart="106.00" departLane="best" from="818679647#4" to="-80318966#1"/>
    <trip id="bus170" type="bus_bus" depart="106.63" departLane="best" from="22072334#1-AddedOnRampEdge" to="128690891"/>
    <trip id="bus171" type="bus_bus" depart="107.26" departLane="best" from="852490412#3" to="164895138"/>
    <trip id="bus172" type="bus_bus" depart="107.89" departLane="best" from="686996775#4" to="-33456967#2"/>
    <trip id="bus173" type="bus_bus" depart="108.51" departLane="best" from="83689302" to="-499427589#3"/>
    <trip id="bus174" type="bus_bus" depart="109.14" departLane="best" from="761099461" to="-72701069"/>
    <trip id="bus175" type="bus_bus" depart="109.77" departLane="best" from="-321833264" to="143599463"/>
    <trip id="bus176" type="bus_bus" depart="110.39" departLane="best" from="283538688#4" to="114108349#0"/>
    <trip id="bus177" type="bus_bus" depart="111.02" departLane="best" from="182013178#5" to="161463765#3"/>
    <trip id="bus178" type="bus_bus" depart="111.65" departLane="best" from="128620729#0" to="174144378#3"/>
    <trip id="bus179" type="bus_bus" depart="112.28" departLane="best" from="-682588657#2" to="256750642#6"/>
    <trip id="bus180" type="bus_bus" depart="112.90" departLane="best" from="-106620120#1" to="658253361#2"/>
    <trip id="bus181" type="bus_bus" depart="113.53" departLane="best" from="164899661#2" to="26812185#1-AddedOnRampEdge"/>
    <trip id="bus182" type="bus_bus" depart="114.16" departLane="best" from="301932467#2" to="233756608#0"/>
    <trip id="bus183" type="bus_bus" depart="114.79" departLane="best" from="121510224#5" to="-217610413#4"/>
    <trip id="bus184" type="bus_bus" depart="115.41" departLane="best" from="22799948" to="120426543#1"/>
    <trip id="bus185" type="bus_bus" depart="116.04" departLane="best" from="114109006" to="499426666"/>
    <trip id="bus186" type="bus_bus" depart="116.67" departLane="best" from="26927982" to="-931969212#2"/>
    <trip id="bus187" type="bus_bus" depart="117.29" departLane="best" from="114077391" to="136512001#3"/>
    <trip id="bus188" type="bus_bus" depart="117.92" departLane="best" from="128753742#3" to="-860687633#2"/>
    <trip id="bus189" type="bus_bus" depart="118.55" departLane="best" from="-392552183#0" to="136867389#0"/>
    <trip id="bus190" type="bus_bus" depart="119.18" departLane="best" from="686996781#1" to="237011435#1"/>
    <trip id="bus191" type="bus_bus" depart="119.80" departLane="best" from="621715531" to="188356145#2"/>
    <trip id="bus192" type="bus_bus" depart="120.43" departLane="best" from="-939378515#1" to="165743483#5"/>
    <trip id="bus193" type="bus_bus" depart="121.06" departLane="best" from="-105276038#0" to="-84652153#4"/>
    <trip id="bus194" type="bus_bus" depart="121.68" departLane="best" departSpeed="max" from="139378012#0" to="174799511#2"/>
    <trip id="bus195" type="bus_bus" depart="122.31" departLane="best" from="227131930" to="154526740#1"/>
    <trip id="bus197" type="bus_bus" depart="123.57" departLane="best" from="156469345#10" to="60110713#0"/>
    <trip id="bus199" type="bus_bus" depart="124.82" departLane="best" from="-248637755#1" to="161466910#3"/>
    <trip id="bus200" type="bus_bus" depart="125.45" departLane="best" from="217106666#7" to="120492008#0"/>
    <trip id="bus201" type="bus_bus" depart="126.08" departLane="best" from="430898065#6" to="32954719#1"/>
    <trip id="bus204" type="bus_bus" depart="127.96" departLane="best" from="-658253365#2" to="156469354#2"/>
    <trip id="bus205" type="bus_bus" depart="128.58" departLane="best" from="500556383#0" to="-226633273"/>
    <trip id="bus206" type="bus_bus" depart="129.21" departLane="best" from="136512012#4" to="207287102#4"/>
    <trip id="bus207" type="bus_bus" depart="129.84" departLane="best" from="-544281623#6" to="244012058#1"/>
    <trip id="bus208" type="bus_bus" depart="130.47" departLane="best" from="161296942#4" to="-658253361#4"/>
    <trip id="bus209" type="bus_bus" depart="131.09" departLane="best" from="227135621#0" to="-106620140#9"/>
    <trip id="bus210" type="bus_bus" depart="131.72" departLane="best" from="32954781#4" to="391182778#3"/>
    <trip id="bus211" type="bus_bus" depart="132.35" departLane="best" from="-314369063#4" to="136968705-AddedOnRampEdge"/>
    <trip id="bus212" type="bus_bus" depart="132.98" departLane="best" from="-498291713#0" to="761099416#1"/>
    <trip id="bus213" type="bus_bus" depart="133.60" departLane="best" from="162546316#0" to="-169486008#1"/>
    <trip id="bus214" type="bus_bus" depart="134.23" departLane="best" from="-658421588#1" to="499427389#2"/>
    <trip id="bus215" type="bus_bus" depart="134.86" departLane="best" from="150608626#5" to="42399915#1"/>
    <trip id="bus216" type="bus_bus" depart="135.48" departLane="best" from="229610040-AddedOffRampEdge" to="863690577#4"/>
    <trip id="bus217" type="bus_bus" depart="136.11" departLane="best" from="176576448#6" to="739539786#0"/>
    <trip id="bus218" type="bus_bus" depart="136.74" departLane="best" from="55885443-AddedOnRampEdge" to="182857676#10"/>
    <trip id="bus219" type="bus_bus" depart="137.37" departLane="best" from="26812185#5" to="161355970#1"/>
    <trip id="bus220" type="bus_bus" depart="137.99" departLane="best" from="48051223#12" to="165743483#4"/>
    <trip id="bus222" type="bus_bus" depart="139.25" departLane="best" from="156469353#0-AddedOnRampEdge" to="-686996775#5"/>
    <trip id="bus223" type="bus_bus" depart="139.87" departLane="best" from="-658421572#7" to="219332912#1"/>
    <trip id="bus224" type="bus_bus" depart="140.50" departLane="best" from="389714443#2" to="162652086"/>
    <trip id="bus225" type="bus_bus" depart="141.13" departLane="best" departSpeed="max" from="201288045" to="-761099439"/>
    <trip id="bus226" type="bus_bus" depart="141.76" departLane="best" from="-228169962#0" to="-83892649#1"/>
    <trip id="bus227" type="bus_bus" depart="142.38" departLane="best" from="-761099420#0" to="116920054#1-AddedOnRampEdge"/>
    <trip id="bus228" type="bus_bus" depart="143.01" departLane="best" from="165174629#1-AddedOnRampEdge" to="-42355000#1"/>
    <trip id="bus229" type="bus_bus" depart="143.64" departLane="best" from="-628042967" to="242787708#0"/>
    <trip id="bus230" type="bus_bus" depart="144.27" departLane="best" from="255784666" to="-188356150#1"/>
    <trip id="bus231" type="bus_bus" depart="144.89" departLane="best" from="136511995#4" to="165628703"/>
    <trip id="bus232" type="bus_bus" depart="145.52" departLane="best" from="136512017" to="-545585632#4"/>
    <trip id="bus233" type="bus_bus" depart="146.15" departLane="best" from="136702242#2" to="622494866"/>
    <trip id="bus234" type="bus_bus" depart="146.77" departLane="best" from="175210669#2" to="243543663#1"/>
    <trip id="bus235" type="bus_bus" depart="147.40" departLane="best" from="518469005#3" to="369334554"/>
    <trip id="bus236" type="bus_bus" depart="148.03" departLane="best" from="122100440#3" to="-106622973#2"/>
    <trip id="bus237" type="bus_bus" depart="148.66" departLane="best" from="121399312" to="331942977#0"/>
    <trip id="bus238" type="bus_bus" depart="149.28" departLane="best" from="513262258#0" to="743595591#7"/>
    <trip id="bus239" type="bus_bus" depart="149.91" departLane="best" from="136597126#2" to="313488873#1-AddedOnRampEdge"/>
    <trip id="bus240" type="bus_bus" depart="150.54" departLane="best" from="165628843#2" to="177353857#1"/>
    <trip id="bus242" type="bus_bus" depart="151.79" departLane="best" from="143599467#1" to="-146747108"/>
    <trip id="bus243" type="bus_bus" depart="152.42" departLane="best" from="121399149#0" to="237581600#21"/>
    <trip id="bus244" type="bus_bus" depart="153.05" departLane="best" from="128981932#1" to="-466271889#4"/>
    <trip id="bus245" type="bus_bus" depart="153.67" departLane="best" from="154526765#2-AddedOffRampEdge" to="-392552183#0"/>
    <trip id="bus246" type="bus_bus" depart="154.30" departLane="best" from="194922777#0" to="-136867403"/>
    <trip id="bus247" type="bus_bus" depart="154.93" departLane="best" from="128622923" to="171981478"/>
    <trip id="bus248" type="bus_bus" depart="155.56" departLane="best" from="-138332527#1" to="220918379#3"/>
    <trip id="bus249" type="bus_bus" depart="156.18" departLane="best" from="-422119590#0" to="152587347#0"/>
    <trip id="bus250" type="bus_bus" depart="156.81" departLane="best" from="-169486008#1" to="122020348#5"/>
    <trip id="bus251" type="bus_bus" depart="157.44" departLane="best" from="-545600203#2" to="119980744#1"/>
    <trip id="bus252" type="bus_bus" depart="158.06" departLane="best" from="369334396#0" to="122020348#5"/>
    <trip id="bus253" type="bus_bus" depart="158.69" departLane="best" from="331942979#0" to="48051223#1"/>
    <trip id="bus254" type="bus_bus" depart="159.32" departLane="best" from="-666327604#2" to="-240367933#2"/>
    <trip id="bus255" type="bus_bus" depart="159.95" departLane="best" from="-122020348#5" to="164899661#1"/>
    <trip id="bus256" type="bus_bus" depart="160.57" departLane="best" from="out3" to="121399247#6"/>
    <trip id="bus257" type="bus_bus" depart="161.20" departLane="best" from="227131351#2" to="41656946#4"/>
    <trip id="bus258" type="bus_bus" depart="161.83" departLane="best" from="227131367#0" to="331942980#0"/>
    <trip id="bus260" type="bus_bus" depart="163.08" departLane="best" from="-124060632#0" to="-42412528#4"/>
    <trip id="bus261" type="bus_bus" depart="163.71" departLane="best" from="-391182778#4" to="229699730"/>
    <trip id="bus262" type="bus_bus" depart="164.34" departLane="best" from="170858297" to="-567248421#1"/>
    <trip id="bus263" type="bus_bus" depart="164.96" departLane="best" from="248643095" to="384816564#0"/>
    <trip id="bus264" type="bus_bus" depart="165.59" departLane="best" from="-481724520#0" to="178930308"/>
    <trip id="bus265" type="bus_bus" depart="166.22" departLane="best" from="320336709" to="-33455720#3"/>
    <trip id="bus266" type="bus_bus" depart="166.85" departLane="best" from="437592496#3" to="784370831"/>
    <trip id="bus267" type="bus_bus" depart="167.47" departLane="best" from="-318612595" to="-136512012#4"/>
    <trip id="bus268" type="bus_bus" depart="168.10" departLane="best" from="114108332#1-AddedOnRampEdge" to="237011435#2"/>
    <trip id="bus269" type="bus_bus" depart="168.73" departLane="best" from="761099430#0" to="128625056#7"/>
    <trip id="bus270" type="bus_bus" depart="169.36" departLane="best" from="26679374#5" to="-227669819#0"/>
    <trip id="bus271" type="bus_bus" depart="169.98" departLane="best" from="241919803#1" to="198992748"/>
    <trip id="bus273" type="bus_bus" depart="171.24" departLane="best" from="500556387#0" to="176576460#0-AddedOffRampEdge"/>
    <trip id="bus274" type="bus_bus" depart="171.86" departLane="best" from="-369334397#2" to="853328365"/>
    <trip id="bus275" type="bus_bus" depart="172.49" departLane="best" from="42353576#0" to="121399232"/>
    <trip id="bus276" type="bus_bus" depart="173.12" departLane="best" from="138693091#3" to="121778742#4"/>
    <trip id="bus277" type="bus_bus" depart="173.75" departLane="best" from="161453457" to="121399172#2"/>
    <trip id="bus278" type="bus_bus" depart="174.37" departLane="best" from="499473623" to="437945148#2"/>
    <trip id="bus279" type="bus_bus" depart="175.00" departLane="best" from="-302986251" to="761099438"/>
    <trip id="bus280" type="bus_bus" depart="175.63" departLane="best" from="219330749#0-AddedOffRampEdge" to="462630730#4"/>
    <trip id="bus281" type="bus_bus" depart="176.25" departLane="best" from="255784670" to="143599468#4"/>
    <trip id="bus282" type="bus_bus" depart="176.88" departLane="best" from="29235183#12" to="80318966#3"/>
    <trip id="bus283" type="bus_bus" depart="177.51" departLane="best" from="-749229816#2" to="42412470"/>
    <trip id="bus284" type="bus_bus" depart="178.14" departLane="best" from="164899658" to="159783483"/>
    <trip id="bus285" type="bus_bus" depart="178.76" departLane="best" from="143599463" to="28416147"/>
    <trip id="bus286" type="bus_bus" depart="179.39" departLane="best" from="-743595614#0" to="500556384"/>
    <trip id="bus287" type="bus_bus" depart="180.02" departLane="best" from="48051223#12-AddedOnRampEdge" to="-25207520#2"/>