<?xml version="1.0" encoding="UTF-8"?>

<!-- generated on 2021-11-01 17:10:19 by Eclipse SUMO duarouter Version 1.10.0
<configuration xmlns:xsi="http://www.w3.org/2001/XMLSchema-instance" xsi:noNamespaceSchemaLocation="http://sumo.dlr.de/xsd/duarouterConfiguration.xsd">

    <input>
        <net-file value="osm.net.xml"/>
        <route-files value="osm.truck.trips.xml"/>
    </input>

    <output>
        <output-file value="osm.truck.trips.xml.tmp"/>
        <write-trips value="true"/>
    </output>

    <time>
        <begin value="0"/>
        <end value="3600"/>
    </time>

    <report>
        <no-warnings value="true"/>
        <ignore-errors value="true"/>
        <no-step-log value="true"/>
    </report>

</configuration>
-->

<routes xmlns:xsi="http://www.w3.org/2001/XMLSchema-instance" xsi:noNamespaceSchemaLocation="http://sumo.dlr.de/xsd/routes_file.xsd">
    <vType id="truck_truck" vClass="truck"/>
    <trip id="truck0" type="truck_truck" depart="0.00" departLane="best" departSpeed="max" from="219487086#0" to="-128981932#6"/>
    <trip id="truck1" type="truck_truck" depart="0.63" departLane="best" from="-761099443#0" to="-60110766#0"/>
    <trip id="truck2" type="truck_truck" depart="1.25" departLane="best" from="29235352" to="236198639#5"/>
    <trip id="truck3" type="truck_truck" depart="1.88" departLane="best" from="55885564" to="-25207520#5"/>
    <trip id="truck5" type="truck_truck" depart="3.14" departLane="best" from="-582733767#0" to="161355981"/>
    <trip id="truck7" type="truck_truck" depart="4.39" departLane="best" from="227131351#0" to="165628815#5"/>
    <trip id="truck9" type="truck_truck" depart="5.65" departLane="best" from="42412798#2" to="-114108305#2"/>
    <trip id="truck10" type="truck_truck" depart="6.27" departLane="best" from="42412470" to="24691164#1"/>
    <trip id="truck11" type="truck_truck" depart="6.90" departLane="best" from="121399172#8-AddedOnRampEdge" to="-42655140#3"/>
    <trip id="truck12" type="truck_truck" depart="7.53" departLane="best" from="761099423#1" to="121100415"/>
    <trip id="truck13" type="truck_truck" depart="8.15" departLane="best" from="-264247408#2" to="-276920593#11"/>
    <trip id="truck14" type="truck_truck" depart="8.78" departLane="best" from="499427390#4" to="177353860#3"/>
    <trip id="truck15" type="truck_truck" depart="9.41" departLane="best" from="42412632#0" to="283538688#0"/>
    <trip id="truck16" type="truck_truck" depart="10.04" departLane="best" from="164899645#1" to="83800914"/>
    <trip id="truck17" type="truck_truck" depart="10.66" departLane="best" from="122020348#6" to="169107076"/>
    <trip id="truck18" type="truck_truck" depart="11.29" departLane="best" from="478014267" to="191049913#1"/>
    <trip id="truck19" type="truck_truck" depart="11.92" departLane="best" from="543824364#3" to="174787774#3"/>
    <trip id="truck20" type="truck_truck" depart="12.54" departLane="best" from="25214182#1-AddedOnRampEdge" to="-164919788"/>
    <trip id="truck21" type="truck_truck" depart="13.17" departLane="best" from="-628042954#1" to="-852490410#5"/>
    <trip id="truck22" type="truck_truck" depart="13.80" departLane="best" from="-23892248#4" to="-628042978"/>
    <trip id="truck23" type="truck_truck" depart="14.43" departLane="best" from="-297715143#6" to="-761099459#1"/>
    <trip id="truck24" type="truck_truck" depart="15.05" departLane="best" from="219330749#0-AddedOffRampEdge" to="121510224#2"/>
    <trip id="truck25" type="truck_truck" depart="15.68" departLane="best" from="121778742#6" to="-545585795"/>
    <trip id="truck26" type="truck_truck" depart="16.31" departLane="best" from="-743595591#5" to="682588657#1"/>
    <trip id="truck27" type="truck_truck" depart="16.94" departLane="best" from="226633385#2" to="182044606#1"/>
    <trip id="truck28" type="truck_truck" depart="17.56" departLane="best" from="-498065246" to="27945353#6"/>
    <trip id="truck29" type="truck_truck" depart="18.19" departLane="best" from="-46031346#2" to="122020348#8"/>
    <trip id="truck30" type="truck_truck" depart="18.82" departLane="best" from="886900163" to="22067160#2"/>
    <trip id="truck31" type="truck_truck" depart="19.44" departLane="best" from="169711582#0" to="240367923#4"/>
    <trip id="truck32" type="truck_truck" depart="20.07" departLane="best" from="498066064#0" to="40696643#1"/>
    <trip id="truck33" type="truck_truck" depart="20.70" departLane="best" from="-628042957#1" to="-155167619#0"/>
    <trip id="truck34" type="truck_truck" depart="21.33" departLane="best" from="114109019#0" to="-743595597#2"/>
    <trip id="truck35" type="truck_truck" depart="21.95" departLane="best" from="-545600011" to="686996983"/>
    <trip id="truck36" type="truck_truck" depart="22.58" departLane="best" from="545585564#4" to="114109006"/>
    <trip id="truck37" type="truck_truck" depart="23.21" departLane="best" from="227135616#1" to="128625055#2"/>
    <trip id="truck38" type="truck_truck" depart="23.84" departLane="best" from="631913012#0" to="152429679#1-AddedOffRampEdge"/>
    <trip id="truck39" type="truck_truck" depart="24.46" departLane="best" from="-72701010#0" to="-658421571#1"/>
    <trip id="truck40" type="truck_truck" depart="25.09" departLane="best" from="170478068#2" to="-686997748"/>
    <trip id="truck42" type="truck_truck" depart="26.34" departLane="best" from="128690887" to="-582799552"/>
    <trip id="truck43" type="truck_truck" depart="26.97" departLane="best" from="939163956" to="161460524#6"/>
    <trip id="truck44" type="truck_truck" depart="27.60" departLane="best" from="-25686353#0" to="-165743483#2"/>
    <trip id="truck45" type="truck_truck" depart="28.23" departLane="best" from="-32954719#3" to="200978003-AddedOnRampEdge"/>
    <trip id="truck46" type="truck_truck" depart="28.85" departLane="best" from="42364857#3" to="136867395#2"/>
    <trip id="truck47" type="truck_truck" depart="29.48" departLane="best" from="-188356149#6" to="122345027#2"/>
    <trip id="truck48" type="truck_truck" depart="30.11" departLane="best" departSpeed="max" from="93467825#0" to="163825161#2"/>
    <trip id="truck49" type="truck_truck" depart="30.73" departLane="best" from="83787825#5" to="518469013#1"/>
    <trip id="truck50" type="truck_truck" depart="31.36" departLane="best" from="-119617637#7" to="26927986"/>
    <trip id="truck51" type="truck_truck" depart="31.99" departLane="best" from="239167100#4" to="164899642#0"/>
    <trip id="truck52" type="truck_truck" depart="32.62" departLane="best" from="-743595591#3" to="220917824#1-AddedOnRampEdge"/>
    <trip id="truck53" type="truck_truck" depart="33.24" departLane="best" from="-32954781#8" to="143599467#1"/>
    <trip id="truck54" type="truck_truck" depart="33.87" departLane="best" from="150522794" to="743595597#3"/>
    <trip id="truck55" type="truck_truck" depart="34.50" departLane="best" from="545585521#2" to="-690857096#1"/>
    <trip id="truck56" type="truck_truck" depart="35.13" departLane="best" from="161355930#3" to="-499427589#3"/>
    <trip id="truck57" type="truck_truck" depart="35.75" departLane="best" from="629221660" to="544521970"/>
    <trip id="truck58" type="truck_truck" depart="36.38" departLane="best" from="-919970124" to="219332919#3"/>
    <trip id="truck59" type="truck_truck" depart="37.01" departLane="best" from="182857673#2" to="-42412632#1"/>
    <trip id="truck60" type="truck_truck" depart="37.63" departLane="best" from="369334423#1" to="164899661#1"/>
    <trip id="truck61" type="truck_truck" depart="38.26" departLane="best" from="41656946#7" to="163825696#1"/>
    <trip id="truck62" type="truck_truck" depart="38.89" departLane="best" from="-105276038#2" to="119617637#10"/>
    <trip id="truck63" type="truck_truck" depart="39.52" departLane="best" from="-122020348#6" to="658421572#6"/>
    <trip id="truck65" type="truck_truck" depart="40.77" departLane="best" from="106620140#7" to="-182857674#6"/>
    <trip id="truck66" type="truck_truck" depart="41.40" departLane="best" from="545585632#4" to="715784070#0"/>
    <trip id="truck67" type="truck_truck" depart="42.03" departLane="best" from="-251334042" to="159791634#5"/>
    <trip id="truck68" type="truck_truck" depart="42.65" departLane="best" from="-217610413#1" to="365806228#3"/>
    <trip id="truck70" type="truck_truck" depart="43.91" departLane="best" from="156469355" to="167659656#4"/>
    <trip id="truck72" type="truck_truck" depart="45.16" departLane="best" from="136867415#1" to="-545600151"/>
    <trip id="truck73" type="truck_truck" depart="45.79" departLane="best" from="165161567" to="283538688#4"/>
    <trip id="truck74" type="truck_truck" depart="46.42" departLane="best" from="-545585486#1" to="114108319#1"/>
    <trip id="truck75" type="truck_truck" depart="47.04" departLane="best" from="93467805#5" to="227131352#5"/>
    <trip id="truck76" type="truck_truck" depart="47.67" departLane="best" from="144929505#0-AddedOffRampEdge" to="161466915#2"/>
    <trip id="truck77" type="truck_truck" depart="48.30" departLane="best" from="-369334397#1" to="-60110822#5"/>
    <trip id="truck78" type="truck_truck" depart="48.92" departLane="best" from="121399160#3-AddedOffRampEdge" to="175210678#4"/>
    <trip id="truck81" type="truck_truck" depart="50.81" departLane="best" from="-628042957#0" to="628027951"/>
    <trip id="truck82" type="truck_truck" depart="51.43" departLane="best" from="519263408" to="-226511228#4"/>
    <trip id="truck83" type="truck_truck" depart="52.06" departLane="best" from="-657913831#3" to="229610044#2"/>
    <trip id="truck84" type="truck_truck" depart="52.69" departLane="best" from="-55814581#1" to="-40696643#2"/>
    <trip id="truck85" type="truck_truck" depart="53.32" departLane="best" from="682588658#3" to="172180974#3-AddedOnRampEdge"/>
    <trip id="truck86" type="truck_truck" depart="53.94" departLane="best" from="156469344#5" to="42353182#1"/>
    <trip id="truck87" type="truck_truck" depart="54.57" departLane="best" from="42412632#3" to="-543824362#2"/>
    <trip id="truck88" type="truck_truck" depart="55.20" departLane="best" from="-276920593#8" to="139882020#1"/>
    <trip id="truck89" type="truck_truck" depart="55.82" departLane="best" from="136867416#3" to="155167619#1"/>
    <trip id="truck90" type="truck_truck" depart="56.45" departLane="best" from="283538690#5" to="234435454#0"/>
    <trip id="truck91" type="truck_truck" depart="57.08" departLane="best" from="854231924#1" to="-285477927#1"/>
    <trip id="truck92" type="truck_truck" depart="57.71" departLane="best" from="128753742#5" to="121399160#0-AddedOffRampEdge"/>
    <trip id="truck93" type="truck_truck" depart="58.33" departLane="best" from="543824364#3" to="-658421581#0"/>
    <trip id="truck94" type="truck_truck" depart="58.96" departLane="best" from="-543824364#1" to="145291215#8"/>
    <trip id="truck95" type="truck_truck" depart="59.59" departLane="best" from="136867394" to="-784370831"/>
    <trip id="truck96" type="truck_truck" depart="60.22" departLane="best" from="-660682022#3" to="657913849"/>
    <trip id="truck97" type="truck_truck" depart="60.84" departLane="best" from="144929524#2" to="519216754"/>
    <trip id="truck98" type="truck_truck" depart="61.47" departLane="best" from="167659656#4" to="-169711582#2"/>
    <trip id="truck99" type="truck_truck" depart="62.10" departLane="best" from="in6" to="481724520#4"/>
    <trip id="truck100" type="truck_truck" depart="62.72" departLane="best" departSpeed="max" from="833742955" to="658253363#1"/>
    <trip id="truck101" type="truck_truck" depart="63.35" departLane="best" from="499473600#2" to="-48069908#0"/>
    <trip id="truck103" type="truck_truck" depart="64.61" departLane="best" from="128690932#1" to="-182857675#6"/>
    <trip id="truck104" type="truck_truck" depart="65.23" departLane="best" from="122090126" to="854231924#6"/>
    <trip id="truck105" type="truck_truck" depart="65.86" departLane="best" from="-72701010#3" to="42345998#9"/>
    <trip id="truck106" type="truck_truck" depart="66.49" departLane="best" from="150522812#3" to="136867415#0"/>
    <trip id="truck107" type="truck_truck" depart="67.11" departLane="best" from="761099424" to="93467805#2"/>
    <trip id="truck108" type="truck_truck" depart="67.74" departLane="best" from="169486002" to="26812157#2"/>
    <trip id="truck109" type="truck_truck" depart="68.37" departLane="best" from="-42655140#0" to="-868296016#1"/>
    <trip id="truck110" type="truck_truck" depart="69.00" departLane="best" departSpeed="max" from="833742955" to="174787790#1"/>
    <trip id="truck111" type="truck_truck" depart="69.62" departLane="best" from="165628794#1" to="314369063#2"/>
    <trip id="truck112" type="truck_truck" depart="70.25" departLane="best" from="-182857673#3" to="174933445#9"/>
    <trip id="truck113" type="truck_truck" depart="70.88" departLane="best" from="161355953" to="50625376#0"/>
    <trip id="truck114" type="truck_truck" depart="71.51" departLane="best" from="-437592495" to="761099438"/>
    <trip id="truck115" type="truck_truck" depart="72.13" departLane="best" from="-239167100#0" to="-518469005#2"/>
    <trip id="truck116" type="truck_truck" depart="72.76" departLane="best" from="176576448#3" to="234442007#2"/>
    <trip id="truck117" type="truck_truck" depart="73.39" departLane="best" from="-657913823#1" to="-367394045"/>
    <trip id="truck118" type="truck_truck" depart="74.01" departLane="best" from="55885440" to="-658253370#1"/>
    <trip id="truck119" type="truck_truck" depart="74.64" departLane="best" from="176576448#12" to="191050695#6"/>
    <trip id="truck120" type="truck_truck" depart="75.27" departLane="best" from="136597131" to="174933445#2"/>
    <trip id="truck122" type="truck_truck" depart="76.52" departLane="best" from="-545585521#2" to="26679430"/>
    <trip id="truck123" type="truck_truck" depart="77.15" departLane="best" from="-657913836#0" to="128625055#4"/>
    <trip id="truck124" type="truck_truck" depart="77.78" departLane="best" from="234435433" to="-930923203"/>
    <trip id="truck125" type="truck_truck" depart="78.41" departLane="best" from="114393691" to="32954774#3"/>
    <trip id="truck126" type="truck_truck" depart="79.03" departLane="best" from="-226633385#0" to="152429678#1-AddedOffRampEdge"/>
    <trip id="truck127" type="truck_truck" depart="79.66" departLane="best" from="in13" to="93467808#1"/>
    <trip id="truck129" type="truck_truck" depart="80.91" departLane="best" from="-72701010#3" to="666327598"/>
    <trip id="truck130" type="truck_truck" depart="81.54" departLane="best" from="121778742#1" to="-437592495"/>
    <trip id="truck131" type="truck_truck" depart="82.17" departLane="best" from="481724519#2" to="251329005"/>
    <trip id="truck132" type="truck_truck" depart="82.80" departLane="best" from="182857676#4" to="863690573#3"/>
    <trip id="truck133" type="truck_truck" depart="83.42" departLane="best" from="227131929#3" to="-119617626#3"/>
    <trip id="truck135" type="truck_truck" depart="84.68" departLane="best" from="227668234#1" to="686996768"/>
    <trip id="truck137" type="truck_truck" depart="85.93" departLane="best" from="-314369063#8" to="169352437#3"/>
    <trip id="truck138" type="truck_truck" depart="86.56" departLane="best" from="-761099423#1" to="177353867#8"/>
    <trip id="truck140" type="truck_truck" depart="87.81" departLane="best" from="217989191#0" to="-700257276#2"/>
    <trip id="truck141" type="truck_truck" depart="88.44" departLane="best" from="159794812#0" to="628027951"/>
    <trip id="truck142" type="truck_truck" depart="89.07" departLane="best" from="499426664#1" to="-26307123"/>
    <trip id="truck143" type="truck_truck" depart="89.70" departLane="best" from="136867416#3" to="-761099451#1"/>
    <trip id="truck144" type="truck_truck" depart="90.32" departLane="best" from="-106620133#0" to="392552182"/>
    <trip id="truck145" type="truck_truck" depart="90.95" departLane="best" from="219330754#0" to="-686996992#1"/>
    <trip id="truck146" type="truck_truck" depart="91.58" departLane="best" from="30064875#0" to="169102940#3"/>
    <trip id="truck147" type="truck_truck" depart="92.20" departLane="best" from="138690696#2" to="-119617632#0"/>
    <trip id="truck148" type="truck_truck" depart="92.83" departLane="best" from="-227668232#6" to="545587244"/>
    <trip id="truck149" type="truck_truck" depart="93.46" departLane="best" from="628027961" to="165628817#1-AddedOffRampEdge"/>
    <trip id="truck150" type="truck_truck" depart="94.09" departLane="best" from="481724521#1" to="174930880#5"/>
    <trip id="truck151" type="truck_truck" depart="94.71" departLane="best" from="-42411413#1" to="-391856790"/>
    <trip id="truck153" type="truck_truck" depart="95.97" departLane="best" from="42398718#0" to="518469013#0"/>
    <trip id="truck154" type="truck_truck" depart="96.60" departLane="best" from="60110697#0" to="-545587243#0"/>
    <trip id="truck155" type="truck_truck" depart="97.22" departLane="best" from="422119590#1" to="545600011"/>
    <trip id="truck156" type="truck_truck" depart="97.85" departLane="best" from="136511990#2" to="191050697#7"/>
    <trip id="truck157" type="truck_truck" depart="98.48" departLane="best" from="-42655136#6" to="658421576#1"/>
    <trip id="truck158" type="truck_truck" depart="99.10" departLane="best" from="543830601" to="84652153#6"/>
    <trip id="truck159" type="truck_truck" depart="99.73" departLane="best" from="42415934#4" to="545585790#8"/>
    <trip id="truck161" type="truck_truck" depart="100.99" departLane="best" from="120491981#1" to="658421586#1"/>
    <trip id="truck162" type="truck_truck" depart="101.61" departLane="best" from="42411426#0" to="543824367#1"/>
    <trip id="truck163" type="truck_truck" depart="102.24" departLane="best" from="42415934#3" to="-743595591#1"/>
    <trip id="truck164" type="truck_truck" depart="102.87" departLane="best" from="42355005#7" to="-318612594#2"/>
    <trip id="truck165" type="truck_truck" depart="103.49" departLane="best" from="544588914#3" to="518469005#4"/>
    <trip id="truck166" type="truck_truck" depart="104.12" departLane="best" from="152429679#1" to="106620126#6"/>
    <trip id="truck167" type="truck_truck" depart="104.75" departLane="best" from="42398612#1" to="-628042949#2"/>
    <trip id="truck168" type="truck_truck" depart="105.38" departLane="best" from="-128883552#2" to="-543824372#0"/>
    <trip id="truck169" type="truck_truck" depart="106.00" departLane="best" from="818679647#4" to="-80318966#1"/>
    <trip id="truck170" type="truck_truck" depart="106.63" departLane="best" from="22072334#1-AddedOnRampEdge" to="128690891"/>
    <trip id="truck171" type="truck_truck" depart="107.26" departLane="best" from="852490412#3" to="164895138"/>
    <trip id="truck172" type="truck_truck" depart="107.89" departLane="best" from="686996775#4" to="-33456967#2"/>
    <trip id="truck173" type="truck_truck" depart="108.51" departLane="best" from="83689302" to="-499427589#3"/>
    <trip id="truck174" type="truck_truck" depart="109.14" departLane="best" from="761099461" to="-72701069"/>
    <trip id="truck175" type="truck_truck" depart="109.77" departLane="best" from="-321833264" to="143599463"/>
    <trip id="truck176" type="truck_truck" depart="110.39" departLane="best" from="283538688#4" to="114108349#0"/>
    <trip id="truck177" type="truck_truck" depart="111.02" departLane="best" from="182013178#5" to="161463765#3"/>
    <trip id="truck178" type="truck_truck" depart="111.65" departLane="best" from="128620729#0" to="174144378#3"/>
    <trip id="truck179" type="truck_truck" depart="112.28" departLane="best" from="-682588657#2" to="256750642#6"/>
    <trip id="truck180" type="truck_truck" depart="112.90" departLane="best" from="-106620120#1" to="658253361#2"/>
    <trip id="truck181" type="truck_truck" depart="113.53" departLane="best" from="164899661#2" to="26812185#1-AddedOnRampEdge"/>
    <trip id="truck182" type="truck_truck" depart="114.16" departLane="best" from="301932467#2" to="233756608#0"/>
    <trip id="truck183" type="truck_truck" depart="114.79" departLane="best" from="121510224#5" to="-217610413#4"/>
    <trip id="truck184" type="truck_truck" depart="115.41" departLane="best" from="22799948" to="120426543#1"/>
    <trip id="truck185" type="truck_truck" depart="116.04" departLane="best" from="114109006" to="499426666"/>
    <trip id="truck186" type="truck_truck" depart="116.67" departLane="best" from="26927982" to="-931969212#2"/>
    <trip id="truck187" type="truck_truck" depart="117.29" departLane="best" from="114077391" to="136512001#3"/>
    <trip id="truck188" type="truck_truck" depart="117.92" departLane="best" from="128753742#3" to="-860687633#2"/>
    <trip id="truck189" type="truck_truck" depart="118.55" departLane="best" from="-392552183#0" to="136867389#0"/>
    <trip id="truck190" type="truck_truck" depart="119.18" departLane="best" from="686996781#1" to="237011435#1"/>
    <trip id="truck191" type="truck_truck" depart="119.80" departLane="best" from="621715531" to="188356145#2"/>
    <trip id="truck192" type="truck_truck" depart="120.43" departLane="best" from="-939378515#1" to="165743483#5"/>
    <trip id="truck193" type="truck_truck" depart="121.06" departLane="best" from="-105276038#0" to="-84652153#4"/>
    <trip id="truck194" type="truck_truck" depart="121.68" departLane="best" departSpeed="max" from="139378012#0" to="174799511#2"/>
    <trip id="truck195" type="truck_truck" depart="122.31" departLane="best" from="227131930" to="154526740#1"/>
    <trip id="truck197" type="truck_truck" depart="123.57" departLane="best" from="156469345#10" to="60110713#0"/>
    <trip id="truck199" type="truck_truck" depart="124.82" departLane="best" from="-248637755#1" to="161466910#3"/>
    <trip id="truck200" type="truck_truck" depart="125.45" departLane="best" from="217106666#7" to="120492008#0"/>
    <trip id="truck201" type="truck_truck" depart="126.08" departLane="best" from="430898065#6" to="32954719#1"/>
    <trip id="truck204" type="truck_truck" depart="127.96" departLane="best" from="-658253365#2" to="156469354#2"/>
    <trip id="truck205" type="truck_truck" depart="128.58" departLane="best" from="500556383#0" to="-226633273"/>
    <trip id="truck206" type="truck_truck" depart="129.21" departLane="best" from="136512012#4" to="207287102#4"/>
    <trip id="truck207" type="truck_truck" depart="129.84" departLane="best" from="-544281623#6" to="244012058#1"/>
    <trip id="truck208" type="truck_truck" depart="130.47" departLane="best" from="161296942#4" to="-658253361#4"/>
    <trip id="truck209" type="truck_truck" depart="131.09" departLane="best" from="227135621#0" to="-106620140#9"/>
    <trip id="truck210" type="truck_truck" depart="131.72" departLane="best" from="32954781#4" to="391182778#3"/>
    <trip id="truck211" type="truck_truck" depart="132.35" departLane="best" from="-314369063#4" to="136968705-AddedOnRampEdge"/>
    <trip id="truck212" type="truck_truck" depart="132.98" departLane="best" from="-498291713#0" to="761099416#1"/>
    <trip id="truck213" type="truck_truck" depart="133.60" departLane="best" from="162546316#0" to="-169486008#1"/>
    <trip id="truck214" type="truck_truck" depart="134.23" departLane="best" from="-658421588#1" to="499427389#2"/>
    <trip id="truck215" type="truck_truck" depart="134.86" departLane="best" from="150608626#5" to="42399915#1"/>
    <trip id="truck216" type="truck_truck" depart="135.48" departLane="best" from="229610040-AddedOffRampEdge" to="863690577#4"/>
    <trip id="truck217" type="truck_truck" depart="136.11" departLane="best" from="176576448#6" to="739539786#0"/>
    <trip id="truck218" type="truck_truck" depart="136.74" departLane="best" from="55885443-AddedOnRampEdge" to="182857676#10"/>
    <trip id="truck219" type="truck_truck" depart="137.37" departLane="best" from="26812185#5" to="161355970#1"/>
    <trip id="truck220" type="truck_truck" depart="137.99" departLane="best" from="48051223#12" to="165743483#4"/>
    <trip id="truck222" type="truck_truck" depart="139.25" departLane="best" from="156469353#0-AddedOnRampEdge" to="-686996775#5"/>
    <trip id="truck223" type="truck_truck" depart="139.87" departLane="best" from="-658421572#7" to="219332912#1"/>
    <trip id="truck224" type="truck_truck" depart="140.50" departLane="best" from="389714443#2" to="162652086"/>
    <trip id="truck225" type="truck_truck" depart="141.13" departLane="best" departSpeed="max" from="201288045" to="-761099439"/>
    <trip id="truck226" type="truck_truck" depart="141.76" departLane="best" from="-228169962#0" to="-83892649#1"/>
    <trip id="truck227" type="truck_truck" depart="142.38" departLane="best" from="-761099420#0" to="116920054#1-AddedOnRampEdge"/>
    <trip id="truck228" type="truck_truck" depart="143.01" departLane="best" from="165174629#1-AddedOnRampEdge" to="-42355000#1"/>
    <trip id="truck229" type="truck_truck" depart="143.64" departLane="best" from="-628042967" to="242787708#0"/>
    <trip id="truck230" type="truck_truck" depart="144.27" departLane="best" from="255784666" to="-188356150#1"/>
    <trip id="truck231" type="truck_truck" depart="144.89" departLane="best" from="136511995#4" to="165628703"/>
    <trip id="truck232" type="truck_truck" depart="145.52" departLane="best" from="136512017" to="-545585632#4"/>
    <trip id="truck233" type="truck_truck" depart="146.15" departLane="best" from="136702242#2" to="622494866"/>
    <trip id="truck234" type="truck_truck" depart="146.77" departLane="best" from="175210669#2" to="243543663#1"/>
    <trip id="truck235" type="truck_truck" depart="147.40" departLane="best" from="518469005#3" to="369334554"/>
    <trip id="truck236" type="truck_truck" depart="148.03" departLane="best" from="122100440#3" to="-106622973#2"/>
    <trip id="truck237" type="truck_truck" depart="148.66" departLane="best" from="121399312" to="331942977#0"/>
    <trip id="truck238" type="truck_truck" depart="149.28" departLane="best" from="513262258#0" to="743595591#7"/>
    <trip id="truck239" type="truck_truck" depart="149.91" departLane="best" from="136597126#2" to="313488873#1-AddedOnRampEdge"/>
    <trip id="truck240" type="truck_truck" depart="150.54" departLane="best" from="165628843#2" to="177353857#1"/>
    <trip id="truck242" type="truck_truck" depart="151.79" departLane="best" from="143599467#1" to="-146747108"/>
    <trip id="truck243" type="truck_truck" depart="152.42" departLane="best" from="121399149#0" to="237581600#21"/>
    <trip id="truck244" type="truck_truck" depart="153.05" departLane="best" from="128981932#1" to="-466271889#4"/>
    <trip id="truck245" type="truck_truck" depart="153.67" departLane="best" from="154526765#2-AddedOffRampEdge" to="-392552183#0"/>
    <trip id="truck246" type="truck_truck" depart="154.30" departLane="best" from="194922777#0" to="-136867403"/>
    <trip id="truck247" type="truck_truck" depart="154.93" departLane="best" from="128622923" to="171981478"/>
    <trip id="truck248" type="truck_truck" depart="155.56" departLane="best" from="-138332527#1" to="220918379#3"/>
    <trip id="truck249" type="truck_truck" depart="156.18" departLane="best" from="-422119590#0" to="152587347#0"/>
    <trip id="truck250" type="truck_truck" depart="156.81" departLane="best" from="-169486008#1" to="122020348#5"/>
    <trip id="truck251" type="truck_truck" depart="157.44" departLane="best" from="-545600203#2" to="119980744#1"/>
    <trip id="truck252" type="truck_truck" depart="158.06" departLane="best" from="369334396#0" to="122020348#5"/>
    <trip id="truck253" type="truck_truck" depart="158.69" departLane="best" from="331942979#0" to="48051223#1"/>
    <trip id="truck254" type="truck_truck" depart="159.32" departLane="best" from="-666327604#2" to="-240367933#2"/>
    <trip id="truck255" type="truck_truck" depart="159.95" departLane="best" from="-122020348#5" to="164899661#1"/>
    <trip id="truck256" type="truck_truck" depart="160.57" departLane="best" from="out3" to="121399247#6"/>
    <trip id="truck257" type="truck_truck" depart="161.20" departLane="best" from="227131351#2" to="41656946#4"/>
    <trip id="truck258" type="truck_truck" depart="161.83" departLane="best" from="227131367#0" to="331942980#0"/>
    <trip id="truck260" type="truck_truck" depart="163.08" departLane="best" from="-124060632#0" to="-42412528#4"/>
    <trip id="truck261" type="truck_truck" depart="163.71" departLane="best" from="-391182778#4" to="229699730"/>
    <trip id="truck262" type="truck_truck" depart="164.34" departLane="best" from="170858297" to="-567248421#1"/>
    <trip id="truck263" type="truck_truck" depart="164.96" departLane="best" from="248643095" to="384816564#0"/>
    <trip id="truck264" type="truck_truck" depart="165.59" departLane="best" from="-481724520#0" to="178930308"/>
    <trip id="truck265" type="truck_truck" depart="166.22" departLane="best" from="320336709" to="-33455720#3"/>
    <trip id="truck266" type="truck_truck" depart="166.85" departLane="best" from="437592496#3" to="784370831"/>
    <trip id="truck267" type="truck_truck" depart="167.47" departLane="best" from="-318612595" to="-136512012#4"/>
    <trip id="truck268" type="truck_truck" depart="168.10" departLane="best" from="114108332#1-AddedOnRampEdge" to="237011435#2"/>
    <trip id="truck269" type="truck_truck" depart="168.73" departLane="best" from="761099430#0" to="128625056#7"/>
    <trip id="truck270" type="truck_truck" depart="169.36" departLane="best" from="26679374#5" to="-227669819#0"/>
    <trip id="truck271" type="truck_truck" depart="169.98" departLane="best" from="241919803#1" to="198992748"/>
    <trip id="truck273" type="truck_truck" depart="171.24" departLane="best" from="500556387#0" to="176576460#0-AddedOffRampEdge"/>