<?xml version="1.0" encoding="UTF-8"?>

<!-- generated on 2021-11-01 17:07:55 by Eclipse SUMO duarouter Version 1.10.0
<configuration xmlns:xsi="http://www.w3.org/2001/XMLSchema-instance" xsi:noNamespaceSchemaLocation="http://sumo.dlr.de/xsd/duarouterConfiguration.xsd">

    <input>
        <net-file value="osm.net.xml"/>
        <route-files value="osm.passenger.trips.xml"/>
    </input>

    <output>
        <output-file value="osm.passenger.trips.xml.tmp"/>
        <write-trips value="true"/>
    </output>

    <time>
        <begin value="0"/>
        <end value="3600"/>
    </time>

    <report>
        <no-warnings value="true"/>
        <ignore-errors value="true"/>
        <no-step-log value="true"/>
    </report>

</configuration>
-->

<routes xmlns:xsi="http://www.w3.org/2001/XMLSchema-instance" xsi:noNamespaceSchemaLocation="http://sumo.dlr.de/xsd/routes_file.xsd">
    <vType id="veh_passenger" vClass="passenger"/>
    <trip id="veh1" type="veh_passenger" depart="0.21" departLane="best" from="120426535" to="-749229816#2"/>
    <trip id="veh2" type="veh_passenger" depart="0.42" departLane="best" from="283538690#7" to="237011435#1"/>
    <trip id="veh3" type="veh_passenger" depart="0.63" departLane="best" from="55885542#0" to="-301932470#0"/>
    <trip id="veh4" type="veh_passenger" depart="0.84" departLane="best" from="150522803" to="-159791623#0"/>
    <trip id="veh5" type="veh_passenger" depart="1.05" departLane="best" from="-72701418#2" to="163056993#0-AddedOnRampEdge"/>
    <trip id="veh6" type="veh_passenger" depart="1.25" departLane="best" from="-154198156#1" to="-657913845#0"/>
    <trip id="veh7" type="veh_passenger" depart="1.46" departLane="best" from="227135615#1" to="170478068#0"/>
    <trip id="veh8" type="veh_passenger" depart="1.67" departLane="best" from="-743595597#2" to="176576459#2"/>
    <trip id="veh9" type="veh_passenger" depart="1.88" departLane="best" from="42411413#4" to="-119617627#0"/>
    <trip id="veh11" type="veh_passenger" depart="2.30" departLane="best" from="127635201" to="-518469011#9"/>
    <trip id="veh12" type="veh_passenger" depart="2.51" departLane="best" from="80318966#2" to="122100440#0"/>
    <trip id="veh13" type="veh_passenger" depart="2.72" departLane="best" from="-32954781#8" to="-33457266#3"/>
    <trip id="veh14" type="veh_passenger" depart="2.93" departLane="best" from="498062279" to="182042887"/>
    <trip id="veh15" type="veh_passenger" depart="3.14" departLane="best" from="42399185#2" to="26953571#1"/>
    <trip id="veh16" type="veh_passenger" depart="3.35" departLane="best" from="169352441#2" to="849487529#1-AddedOnRampEdge"/>
    <trip id="veh17" type="veh_passenger" depart="3.55" departLane="best" from="136597126#2" to="171981481#2"/>
    <trip id="veh18" type="veh_passenger" depart="3.76" departLane="best" from="443721150#0" to="193139920#1"/>
    <trip id="veh19" type="veh_passenger" depart="3.97" departLane="best" from="5169081#1-AddedOnRampEdge" to="175210693#12"/>
    <trip id="veh20" type="veh_passenger" depart="4.18" departLane="best" from="25214182#2" to="-177353867#12"/>
    <trip id="veh21" type="veh_passenger" depart="4.39" departLane="best" from="-761099453#0" to="121399158#1"/>
    <trip id="veh22" type="veh_passenger" depart="4.60" departLane="best" from="-27265187#3" to="-83689275#4"/>
    <trip id="veh23" type="veh_passenger" depart="4.81" departLane="best" from="-369334399#1" to="120426543#7"/>
    <trip id="veh24" type="veh_passenger" depart="5.02" departLane="best" departSpeed="max" from="220917824#0" to="128883576"/>
    <trip id="veh25" type="veh_passenger" depart="5.23" departLane="best" from="136512002#3" to="-682588653#2"/>
    <trip id="veh26" type="veh_passenger" depart="5.44" departLane="best" departSpeed="max" from="116920072" to="686996981#1"/>
    <trip id="veh27" type="veh_passenger" depart="5.65" departLane="best" from="227131928#2" to="182857678#0"/>
    <trip id="veh28" type="veh_passenger" depart="5.85" departLane="best" from="-545585790#0" to="26953570#2"/>
    <trip id="veh30" type="veh_passenger" depart="6.27" departLane="best" from="93467796#1" to="22270616#3"/>
    <trip id="veh31" type="veh_passenger" depart="6.48" departLane="best" departSpeed="max" from="172431854" to="240367923#3"/>
    <trip id="veh32" type="veh_passenger" depart="6.69" departLane="best" from="4822345#11" to="369334397#0"/>
    <trip id="veh33" type="veh_passenger" depart="6.90" departLane="best" from="-761099462" to="-161453474#1"/>
    <trip id="veh34" type="veh_passenger" depart="7.11" departLane="best" from="121510218#3" to="116920065"/>
    <trip id="veh35" type="veh_passenger" depart="7.32" departLane="best" from="-682588661" to="739539781#1"/>
    <trip id="veh36" type="veh_passenger" depart="7.53" departLane="best" from="545585486#19" to="121399458"/>
    <trip id="veh37" type="veh_passenger" depart="7.74" departLane="best" from="227668227#9" to="142101048#2"/>
    <trip id="veh38" type="veh_passenger" depart="7.95" departLane="best" from="657913826#6" to="159783519"/>
    <trip id="veh40" type="veh_passenger" depart="8.36" departLane="best" from="174144374-AddedOffRampEdge" to="114109018#4-AddedOnRampEdge"/>
    <trip id="veh42" type="veh_passenger" depart="8.78" departLane="best" from="143599463" to="-72701418#2"/>
    <trip id="veh43" type="veh_passenger" depart="8.99" departLane="best" from="in2" to="163825161#0"/>
    <trip id="veh44" type="veh_passenger" depart="9.20" departLane="best" from="-32954719#0" to="-182857673#2"/>
    <trip id="veh45" type="veh_passenger" depart="9.41" departLane="best" from="-40696643#5" to="217106666#4"/>
    <trip id="veh46" type="veh_passenger" depart="9.62" departLane="best" from="42353181#1" to="150608622#0-AddedOffRampEdge"/>
    <trip id="veh47" type="veh_passenger" depart="9.83" departLane="best" from="-22799951#1" to="136867393#0"/>
    <trip id="veh48" type="veh_passenger" depart="10.04" departLane="best" from="in1" to="165628818#1-AddedOnRampEdge"/>
    <trip id="veh50" type="veh_passenger" depart="10.45" departLane="best" from="-121510228#5" to="26812147#2"/>
    <trip id="veh51" type="veh_passenger" depart="10.66" departLane="best" from="240367923#0" to="169352437#4"/>
    <trip id="veh52" type="veh_passenger" depart="10.87" departLane="best" departSpeed="max" from="116920072" to="22270616#4"/>
    <trip id="veh54" type="veh_passenger" depart="11.29" departLane="best" from="159782794#2" to="761099421#0"/>
    <trip id="veh55" type="veh_passenger" depart="11.50" departLane="best" from="545585486#13" to="114393690#0"/>
    <trip id="veh56" type="veh_passenger" depart="11.71" departLane="best" departSpeed="max" from="163056989#0" to="-55820165#2"/>
    <trip id="veh57" type="veh_passenger" depart="11.92" departLane="best" from="631912910#1" to="543824372#0"/>
    <trip id="veh58" type="veh_passenger" depart="12.13" departLane="best" from="121399210#1" to="22270614"/>
    <trip id="veh59" type="veh_passenger" depart="12.34" departLane="best" from="191049913#2" to="-513378595#1"/>
    <trip id="veh60" type="veh_passenger" depart="12.54" departLane="best" from="32954774#0" to="169447019#4"/>
    <trip id="veh61" type="veh_passenger" depart="12.75" departLane="best" from="392552185#1" to="165628850#0"/>
    <trip id="veh62" type="veh_passenger" depart="12.96" departLane="best" from="-106617830" to="121778742#5-AddedOffRampEdge"/>
    <trip id="veh63" type="veh_passenger" depart="13.17" departLane="best" from="-128753742#6" to="666327599#1"/>
    <trip id="veh64" type="veh_passenger" depart="13.38" departLane="best" from="545585564#6" to="443721151#4"/>
    <trip id="veh65" type="veh_passenger" depart="13.59" departLane="best" from="121399375#0" to="-217989191#0"/>
    <trip id="veh66" type="veh_passenger" depart="13.80" departLane="best" from="545585521#1" to="739539791#1"/>
    <trip id="veh67" type="veh_passenger" depart="14.01" departLane="best" from="-301932466#0" to="161460524#6"/>
    <trip id="veh68" type="veh_passenger" depart="14.22" departLane="best" from="-243543663#1" to="30784174#2"/>
    <trip id="veh69" type="veh_passenger" depart="14.43" departLane="best" from="33455540" to="-42655136#3"/>
    <trip id="veh70" type="veh_passenger" depart="14.64" departLane="best" from="161355940#0" to="171981479-AddedOffRampEdge"/>
    <trip id="veh72" type="veh_passenger" depart="15.05" departLane="best" from="150608622#0" to="-682588663#0"/>
    <trip id="veh73" type="veh_passenger" depart="15.26" departLane="best" from="169711582#2" to="26953571#1-AddedOnRampEdge"/>
    <trip id="veh74" type="veh_passenger" depart="15.47" departLane="best" from="-658253362#1" to="121399414"/>
    <trip id="veh75" type="veh_passenger" depart="15.68" departLane="best" from="93467825#9" to="227135615#2"/>
    <trip id="veh76" type="veh_passenger" depart="15.89" departLane="best" from="154526750#0-AddedOnRampEdge" to="164899642#0"/>
    <trip id="veh77" type="veh_passenger" depart="16.10" departLane="best" from="-42399986#1" to="-761099421#0"/>
    <trip id="veh78" type="veh_passenger" depart="16.31" departLane="best" from="-80319243" to="-743595591#0"/>
    <trip id="veh80" type="veh_passenger" depart="16.73" departLane="best" from="-761099461" to="628027960#1"/>
    <trip id="veh81" type="veh_passenger" depart="16.94" departLane="best" from="513378596#0" to="-248637750#2"/>
    <trip id="veh82" type="veh_passenger" depart="17.14" departLane="best" from="-852490410#3" to="234435441-AddedOnRampEdge"/>
    <trip id="veh84" type="veh_passenger" depart="17.56" departLane="best" from="686996992#1" to="174933445#1"/>
    <trip id="veh86" type="veh_passenger" depart="17.98" departLane="best" from="42399986#1" to="-628042962#0"/>
    <trip id="veh87" type="veh_passenger" depart="18.19" departLane="best" from="-33457660#2" to="152586238#1"/>
    <trip id="veh88" type="veh_passenger" depart="18.40" departLane="best" from="150608622#1" to="161287539#2"/>
    <trip id="veh89" type="veh_passenger" depart="18.61" departLane="best" from="27081693#2" to="234435459#2"/>
    <trip id="veh90" type="veh_passenger" depart="18.82" departLane="best" from="865466545#0" to="-365853166#0"/>
    <trip id="veh91" type="veh_passenger" depart="19.03" departLane="best" departSpeed="max" from="144929505#0" to="122346047"/>
    <trip id="veh92" type="veh_passenger" depart="19.24" departLane="best" from="5169081#1" to="-931969212#4"/>
    <trip id="veh93" type="veh_passenger" depart="19.44" departLane="best" from="-628042962#4" to="156469344#5-AddedOffRampEdge"/>
    <trip id="veh94" type="veh_passenger" depart="19.65" departLane="best" from="150522803" to="120491943"/>
    <trip id="veh95" type="veh_passenger" depart="19.86" departLane="best" from="106617833#1" to="658253363#1"/>
    <trip id="veh96" type="veh_passenger" depart="20.07" departLane="best" from="156346934#5" to="513262258#4"/>
    <trip id="veh97" type="veh_passenger" depart="20.28" departLane="best" from="171981488" to="-182857678#5"/>
    <trip id="veh98" type="veh_passenger" depart="20.49" departLane="best" from="out1" to="466271889#7"/>
    <trip id="veh99" type="veh_passenger" depart="20.70" departLane="best" from="83995265#0" to="658421578"/>
    <trip id="veh101" type="veh_passenger" depart="21.12" departLane="best" from="161463768#4" to="-686996775#1"/>
    <trip id="veh102" type="veh_passenger" depart="21.33" departLane="best" from="143749968#1" to="-226511228#4"/>
    <trip id="veh103" type="veh_passenger" depart="21.54" departLane="best" from="136702236" to="865466544#2"/>
    <trip id="veh105" type="veh_passenger" depart="21.95" departLane="best" from="159783334" to="150608626#0"/>
    <trip id="veh106" type="veh_passenger" depart="22.16" departLane="best" from="80318966#3" to="935258514"/>
    <trip id="veh107" type="veh_passenger" depart="22.37" departLane="best" from="172180975#0" to="26679382"/>
    <trip id="veh108" type="veh_passenger" depart="22.58" departLane="best" from="-518469011#8" to="121399172#9"/>
    <trip id="veh109" type="veh_passenger" depart="22.79" departLane="best" from="83892649#3" to="175210694#1"/>
    <trip id="veh110" type="veh_passenger" depart="23.00" departLane="best" from="170473547#1" to="29235183#7"/>
    <trip id="veh111" type="veh_passenger" depart="23.21" departLane="best" from="-217610413#2" to="176576450"/>
    <trip id="veh112" type="veh_passenger" depart="23.42" departLane="best" departSpeed="max" from="163057032#0" to="498275479"/>
    <trip id="veh113" type="veh_passenger" depart="23.63" departLane="best" from="-543824364#4" to="81813449"/>
    <trip id="veh115" type="veh_passenger" depart="24.04" departLane="best" from="178363614#0" to="235466190#1"/>
    <trip id="veh116" type="veh_passenger" depart="24.25" departLane="best" from="-83892649#2" to="-42398978#0"/>
    <trip id="veh117" type="veh_passenger" depart="24.46" departLane="best" from="55885442#0" to="-868296032#1"/>
    <trip id="veh118" type="veh_passenger" depart="24.67" departLane="best" from="177353880#0" to="194922778#2"/>
    <trip id="veh119" type="veh_passenger" depart="24.88" departLane="best" from="146452467" to="176576448#7"/>
    <trip id="veh120" type="veh_passenger" depart="25.09" departLane="best" from="165628814#1" to="686996772#5"/>
    <trip id="veh121" type="veh_passenger" depart="25.30" departLane="best" from="-658421576#0" to="26679311#1"/>
    <trip id="veh122" type="veh_passenger" depart="25.51" departLane="best" from="-852490411#1" to="142101048#2-AddedOffRampEdge"/>
    <trip id="veh124" type="veh_passenger" depart="25.93" departLane="best" from="121510221#4" to="29235323#7"/>
    <trip id="veh125" type="veh_passenger" depart="26.14" departLane="best" from="-25207520#9" to="159783479#1"/>
    <trip id="veh126" type="veh_passenger" depart="26.34" departLane="best" from="-255784669#1" to="-686996772#3"/>
    <trip id="veh127" type="veh_passenger" depart="26.55" departLane="best" from="116920065" to="682588664"/>
    <trip id="veh128" type="veh_passenger" depart="26.76" departLane="best" from="545585790#3" to="545585486#5"/>
    <trip id="veh129" type="veh_passenger" depart="26.97" departLane="best" from="136512001#7" to="-543824364#1"/>
    <trip id="veh130" type="veh_passenger" depart="27.18" departLane="best" from="466271889#4" to="249229903#1"/>
    <trip id="veh131" type="veh_passenger" depart="27.39" departLane="best" from="193107919" to="886900163"/>
    <trip id="veh132" type="veh_passenger" depart="27.60" departLane="best" from="227668227#16" to="-119617631#3"/>
    <trip id="veh133" type="veh_passenger" depart="27.81" departLane="best" from="42412801#5" to="121399195#3"/>
    <trip id="veh134" type="veh_passenger" depart="28.02" departLane="best" from="229610043#3" to="690857095#2"/>
    <trip id="veh135" type="veh_passenger" depart="28.23" departLane="best" from="-444000967#0" to="-42355001#5"/>
    <trip id="veh137" type="veh_passenger" depart="28.64" departLane="best" from="119980740#7-AddedOffRampEdge" to="182047060#0"/>
    <trip id="veh138" type="veh_passenger" depart="28.85" departLane="best" from="26812136#1" to="-658421571#0"/>
    <trip id="veh139" type="veh_passenger" depart="29.06" departLane="best" from="22072334#1-AddedOffRampEdge" to="114393693#3"/>
    <trip id="veh140" type="veh_passenger" depart="29.27" departLane="best" from="161466911#1" to="628027960#0"/>
    <trip id="veh141" type="veh_passenger" depart="29.48" departLane="best" from="4845099" to="-32954774#6"/>
    <trip id="veh142" type="veh_passenger" depart="29.69" departLane="best" from="150608622#1" to="119980765#0-AddedOffRampEdge"/>
    <trip id="veh143" type="veh_passenger" depart="29.90" departLane="best" from="-106620137#5" to="33457266#4"/>
    <trip id="veh144" type="veh_passenger" depart="30.11" departLane="best" from="220917827#4" to="114109017"/>
    <trip id="veh145" type="veh_passenger" depart="30.32" departLane="best" from="29201277#1-AddedOnRampEdge" to="171981481#2"/>
    <trip id="veh146" type="veh_passenger" depart="30.53" departLane="best" from="152429655#5" to="-120491976"/>
    <trip id="veh147" type="veh_passenger" depart="30.73" departLane="best" from="-256756800" to="545585790#3"/>
    <trip id="veh148" type="veh_passenger" depart="30.94" departLane="best" from="628042950" to="170613311#0"/>
    <trip id="veh149" type="veh_passenger" depart="31.15" departLane="best" from="47605548-AddedOffRampEdge" to="176576448#11"/>
    <trip id="veh150" type="veh_passenger" depart="31.36" departLane="best" from="-499473601#0" to="-42412751#4"/>
    <trip id="veh152" type="veh_passenger" depart="31.78" departLane="best" from="42355001#1" to="50633438#2"/>
    <trip id="veh153" type="veh_passenger" depart="31.99" departLane="best" from="60105853#0" to="-682588655#1"/>
    <trip id="veh154" type="veh_passenger" depart="32.20" departLane="best" from="105276038#2" to="-373350938#0"/>
    <trip id="veh156" type="veh_passenger" depart="32.62" departLane="best" from="144929508#1" to="194922783#8"/>
    <trip id="veh157" type="veh_passenger" depart="32.83" departLane="best" from="-518469011#5" to="666329542"/>
    <trip id="veh158" type="veh_passenger" depart="33.03" departLane="best" from="519216753" to="852490411#0"/>
    <trip id="veh159" type="veh_passenger" depart="33.24" departLane="best" from="42411440#3" to="545585574#2"/>
    <trip id="veh161" type="veh_passenger" depart="33.66" departLane="best" from="121991173#1" to="682588653#2"/>
    <trip id="veh162" type="veh_passenger" depart="33.87" departLane="best" from="42365146#0" to="5169081#1-AddedOnRampEdge"/>
    <trip id="veh163" type="veh_passenger" depart="34.08" departLane="best" from="42411440#3" to="116920054#1-AddedOnRampEdge"/>
    <trip id="veh165" type="veh_passenger" depart="34.50" departLane="best" from="544521969" to="500556388#0"/>
    <trip id="veh166" type="veh_passenger" depart="34.71" departLane="best" from="-749229816#0" to="42412488#1"/>
    <trip id="veh167" type="veh_passenger" depart="34.92" departLane="best" from="159791640#2" to="121399258"/>
    <trip id="veh168" type="veh_passenger" depart="35.13" departLane="best" from="42354892#1" to="-761099446#1"/>
    <trip id="veh169" type="veh_passenger" depart="35.33" departLane="best" from="-144929523#7" to="-631902653#1"/>
    <trip id="veh170" type="veh_passenger" depart="35.54" departLane="best" from="121988943#0" to="518469005#1"/>
    <trip id="veh171" type="veh_passenger" depart="35.75" departLane="best" from="83800921#3" to="120491954"/>
    <trip id="veh172" type="veh_passenger" depart="35.96" departLane="best" from="226511228#3" to="143749968#0"/>
    <trip id="veh173" type="veh_passenger" depart="36.17" departLane="best" from="863690577#0" to="169352437#0"/>
    <trip id="veh174" type="veh_passenger" depart="36.38" departLane="best" from="739539780#0" to="-42355001#4"/>
    <trip id="veh175" type="veh_passenger" depart="36.59" departLane="best" from="849487526#1" to="-55820165#1"/>
    <trip id="veh176" type="veh_passenger" depart="36.80" departLane="best" departSpeed="max" from="818698304#0" to="116920046"/>
    <trip id="veh178" type="veh_passenger" depart="37.22" departLane="best" from="27081675" to="121399440#1"/>
    <trip id="veh179" type="veh_passenger" depart="37.43" departLane="best" from="188356145#0" to="163825703"/>
    <trip id="veh180" type="veh_passenger" depart="37.63" departLane="best" from="136968705" to="175210686"/>
    <trip id="veh181" type="veh_passenger" depart="37.84" departLane="best" from="106622973#3" to="255784666"/>
    <trip id="veh182" type="veh_passenger" depart="38.05" departLane="best" from="-106620123#0" to="658421572#6"/>
    <trip id="veh183" type="veh_passenger" depart="38.26" departLane="best" from="169486003#2" to="26812135"/>
    <trip id="veh184" type="veh_passenger" depart="38.47" departLane="best" from="29204369#0-AddedOffRampEdge" to="234435447#4"/>
    <trip id="veh185" type="veh_passenger" depart="38.68" departLane="best" from="128753742#6" to="-243543672#1"/>
    <trip id="veh186" type="veh_passenger" depart="38.89" departLane="best" from="229610047" to="121988943#1"/>
    <trip id="veh187" type="veh_passenger" depart="39.10" departLane="best" from="121399480" to="4822362#1"/>
    <trip id="veh188" type="veh_passenger" depart="39.31" departLane="best" from="26812165" to="121399204#1"/>
    <trip id="veh189" type="veh_passenger" depart="39.52" departLane="best" from="121399410#3" to="144929524#1"/>
    <trip id="veh190" type="veh_passenger" depart="39.73" departLane="best" from="143832436" to="121399172#4"/>
    <trip id="veh191" type="veh_passenger" depart="39.93" departLane="best" from="-42415934#4" to="150522799"/>
    <trip id="veh192" type="veh_passenger" depart="40.14" departLane="best" from="739539781#0" to="237011435#3"/>
    <trip id="veh193" type="veh_passenger" depart="40.35" departLane="best" from="627964458#1" to="193102401#0"/>
    <trip id="veh194" type="veh_passenger" depart="40.56" departLane="best" from="121399240" to="170628889#3"/>
    <trip id="veh195" type="veh_passenger" depart="40.77" departLane="best" from="-105276038#1" to="121399145#2"/>
    <trip id="veh196" type="veh_passenger" depart="40.98" departLane="best" from="152429678#1" to="175210696#3"/>
    <trip id="veh197" type="veh_passenger" depart="41.19" departLane="best" from="227668227#4" to="159794815#0"/>
    <trip id="veh198" type="veh_passenger" depart="41.40" departLane="best" from="156346934#0" to="-686996775#1"/>
    <trip id="veh199" type="veh_passenger" depart="41.61" departLane="best" from="161355924#2" to="60105853#1"/>
    <trip id="veh200" type="veh_passenger" depart="41.82" departLane="best" from="42355000#2" to="-545585564#4"/>
    <trip id="veh201" type="veh_passenger" depart="42.03" departLane="best" from="-29812789#0" to="164601688#2-AddedOffRampEdge"/>
    <trip id="veh202" type="veh_passenger" depart="42.23" departLane="best" from="219487086#4" to="122020348#4"/>
    <trip id="veh203" type="veh_passenger" depart="42.44" departLane="best" from="42454165" to="29235323#5-AddedOnRampEdge"/>
    <trip id="veh204" type="veh_passenger" depart="42.65" departLane="best" departSpeed="max" from="234442040" to="-761099420#1"/>
    <trip id="veh205" type="veh_passenger" depart="42.86" departLane="best" from="-657914007" to="-150522796#1"/>
    <trip id="veh206" type="veh_passenger" depart="43.07" departLane="best" from="-868296016#0" to="161355924#2"/>
    <trip id="veh207" type="veh_passenger" depart="43.28" departLane="best" from="498065515#5" to="-25207520#7"/>
    <trip id="veh209" type="veh_passenger" depart="43.70" departLane="best" from="-657913826#11" to="242787707#1"/>
    <trip id="veh210" type="veh_passenger" depart="43.91" departLane="best" from="162546312#5" to="-856269190#0"/>
    <trip id="veh211" type="veh_passenger" depart="44.12" departLane="best" from="227668229#3" to="-114108307#1"/>
    <trip id="veh212" type="veh_passenger" depart="44.32" departLane="best" from="294630504" to="33455857"/>
    <trip id="veh215" type="veh_passenger" depart="44.95" departLane="best" from="164919787#1" to="-182857678#0"/>
    <trip id="veh216" type="veh_passenger" depart="45.16" departLane="best" from="105276036#1" to="4845102"/>
    <trip id="veh217" type="veh_passenger" depart="45.37" departLane="best" from="159783483" to="42360444#0"/>
    <trip id="veh219" type="veh_passenger" depart="45.79" departLane="best" from="178363614#1" to="743595597#3"/>
    <trip id="veh220" type="veh_passenger" depart="46.00" departLane="best" from="55885442#5" to="191049913#1"/>
    <trip id="veh222" type="veh_passenger" depart="46.42" departLane="best" from="44780841#1" to="170628889#3"/>
    <trip id="veh224" type="veh_passenger" depart="46.83" departLane="best" from="161355930#3" to="114108332#1-AddedOnRampEdge"/>
    <trip id="veh227" type="veh_passenger" depart="47.46" departLane="best" departSpeed="max" from="219330749#0" to="119980749#1-AddedOnRampEdge"/>
    <trip id="veh228" type="veh_passenger" depart="47.67" departLane="best" from="-264247408#4" to="121399145#0"/>
    <trip id="veh229" type="veh_passenger" depart="47.88" departLane="best" from="119617637#6" to="121510282#3"/>
    <trip id="veh230" type="veh_passenger" depart="48.09" departLane="best" departSpeed="max" from="170261283#0" to="-481724518#2"/>
    <trip id="veh231" type="veh_passenger" depart="48.30" departLane="best" from="-827594871#0" to="241919803#2"/>
    <trip id="veh232" type="veh_passenger" depart="48.51" departLane="best" from="255512181" to="-22799992#0"/>
    <trip id="veh233" type="veh_passenger" depart="48.72" departLane="best" from="144929520#1" to="170473546"/>
    <trip id="veh234" type="veh_passenger" depart="48.92" departLane="best" from="145291215#19" to="-663819976#0"/>
    <trip id="veh235" type="veh_passenger" depart="49.13" departLane="best" from="150522779#1" to="626121204"/>
    <trip id="veh236" type="veh_passenger" depart="49.34" departLane="best" from="176576454#1" to="241919804#1-AddedOnRampEdge"/>
    <trip id="veh237" type="veh_passenger" depart="49.55" departLane="best" from="50625375#0" to="32954719#3"/>
    <trip id="veh238" type="veh_passenger" depart="49.76" departLane="best" from="136867389#1" to="-114108326"/>
    <trip id="veh239" type="veh_passenger" depart="49.97" departLane="best" departSpeed="max" from="128620792#0" to="297715143#1"/>
    <trip id="veh240" type="veh_passenger" depart="50.18" departLane="best" from="499427389#4" to="761099417"/>
    <trip id="veh241" type="veh_passenger" depart="50.39" departLane="best" from="146451498" to="29235183#12"/>
    <trip id="veh242" type="veh_passenger" depart="50.60" departLane="best" from="170628888" to="182013178#2"/>
    <trip id="veh243" type="veh_passenger" depart="50.81" departLane="best" from="-743595597#3" to="-72701418#3"/>
    <trip id="veh244" type="veh_passenger" depart="51.02" departLane="best" from="154197830#0" to="-159782793#0"/>
    <trip id="veh245" type="veh_passenger" depart="51.22" departLane="best" from="122345027#2" to="237581600#21"/>
    <trip id="veh247" type="veh_passenger" depart="51.64" departLane="best" from="161296939#3" to="-42415934#1"/>
    <trip id="veh248" type="veh_passenger" depart="51.85" departLane="best" from="208218220#0" to="-155236367#0"/>
    <trip id="veh249" type="veh_passenger" depart="52.06" departLane="best" from="139882019#0" to="174646963#1"/>
    <trip id="veh250" type="veh_passenger" depart="52.27" departLane="best" from="-155236367#2" to="226631638#1"/>
    <trip id="veh251" type="veh_passenger" depart="52.48" departLane="best" from="-46033018#1" to="159791637#8"/>
    <trip id="veh252" type="veh_passenger" depart="52.69" departLane="best" from="-182857678#1" to="136702236"/>
    <trip id="veh253" type="veh_passenger" depart="52.90" departLane="best" from="-686996768" to="121781874"/>
    <trip id="veh254" type="veh_passenger" depart="53.11" departLane="best" from="32594357#1-AddedOffRampEdge" to="136702236"/>
    <trip id="veh255" type="veh_passenger" depart="53.32" departLane="best" from="297715143#17" to="444000967#3"/>
    <trip id="veh256" type="veh_passenger" depart="53.52" departLane="best" from="106620128#1" to="-280166010#4"/>
    <trip id="veh257" type="veh_passenger" depart="53.73" departLane="best" from="-128753742#5" to="169447019#4"/>
    <trip id="veh258" type="veh_passenger" depart="53.94" departLane="best" from="out3" to="128620758"/>
    <trip id="veh259" type="veh_passenger" depart="54.15" departLane="best" from="227135616#1" to="391182785#0"/>
    <trip id="veh261" type="veh_passenger" depart="54.57" departLane="best" from="749229816#0" to="-657913847"/>
    <trip id="veh262" type="veh_passenger" depart="54.78" departLane="best" from="-128981932#2" to="-513262258#2"/>
    <trip id="veh263" type="veh_passenger" depart="54.99" departLane="best" from="-42412632#1" to="234435447#0"/>
    <trip id="veh264" type="veh_passenger" depart="55.20" departLane="best" from="174787782#3" to="-700257276#2"/>
    <trip id="veh265" type="veh_passenger" depart="55.41" departLane="best" from="248637755#1" to="32954781#5"/>
    <trip id="veh266" type="veh_passenger" depart="55.62" departLane="best" from="-545585486#7" to="182857675#4"/>
    <trip id="veh267" type="veh_passenger" depart="55.82" departLane="best" from="29235323#3" to="-42354887"/>
    <trip id="veh268" type="veh_passenger" depart="56.03" departLane="best" from="42655136#7" to="827594871#0"/>
    <trip id="veh270" type="veh_passenger" depart="56.45" departLane="best" departSpeed="max" from="121399443#0" to="237011435#4"/>
    <trip id="veh271" type="veh_passenger" depart="56.66" departLane="best" from="81140535#1" to="142101048#6"/>
    <trip id="veh272" type="veh_passenger" depart="56.87" departLane="best" from="26679374#4" to="-256756987#2"/>
    <trip id="veh274" type="veh_passenger" depart="57.29" departLane="best" from="-369335343#0" to="352256541"/>
    <trip id="veh275" type="veh_passenger" depart="57.50" departLane="best" from="498066064#2" to="178363614#2"/>
    <trip id="veh276" type="veh_passenger" depart="57.71" departLane="best" from="-42399986#2" to="865466544#1"/>
    <trip id="veh277" type="veh_passenger" depart="57.92" departLane="best" from="40724037#3" to="128620744#0"/>
    <trip id="veh278" type="veh_passenger" depart="58.12" departLane="best" from="152429674" to="136512002#7"/>
    <trip id="veh279" type="veh_passenger" depart="58.33" departLane="best" from="163822332#2" to="127635194#1"/>
    <trip id="veh280" type="veh_passenger" depart="58.54" departLane="best" from="498065515#3" to="42655136#1"/>
    <trip id="veh281" type="veh_passenger" depart="58.75" departLane="best" from="-392552182" to="81813449"/>